// Automatically generated by GRFCODEC. Do not modify!
// (Info version 7)
// Escapes: 2+ 2- 2< 2> 2u< 2u> 2/ 2% 2u/ 2u% 2* 2& 2| 2^ 2sto = 2s 2rst = 2r 2psto 2ror = 2rot 2cmp 2ucmp 2<< 2u>> 2>>
// Escapes: 71 70 7= 7! 7< 7> 7G 7g 7gG 7GG 7gg 7c 7C
// Escapes: D= = DR D+ = DF D- = DC Du* = DM D* = DnF Du<< = DnC D<< = DO D& D| Du/ D/ Du% D%
// Format: spritenum pcxfile xpos ypos compression ysize xsize xrel yrel
    0 * 4	 66 15 00 00
    1 * 269	 08 05 "ML" 05 03 "Dutch Trainset Alpha 1.1" 00 "Dutch "
	 "Trainset Team: Hyronymus, Purno "
	 "and Bastiaan." 0D 0A "Graphics by: bastiaan, "
	 "DanMacK, Purno, Snail, Wile E. Coyote "
	 "and others." 0D 0A "Coded by Purno and "
	 "BlueEagle with GRF Maker." 0D 0A "Thanks "
	 "to AndersI and jvassie." 0D 0A "(c)2007-2008 "
	 "Dutch Trainset Team" 00
    2 * 7	 00 08 01 01 01 08 09
    3 * 7	 00 08 01 01 0A 08 01
    4 * 7	 00 08 01 01 0F 08 07
    5 * 7	 00 08 01 01 10 08 09
    6 * 7	 00 08 01 01 28 08 0A
    7 * 7	 00 08 01 01 2A 08 0A
    8 * 7	 00 08 01 01 2B 08 0A
    9 * 7	 00 08 01 01 2C 08 0A
   10 * 6	 01 00 01 FF 08 00
   11 ./dutchtrainsw.png 194 8 01 20 74 -1 -1
   12 ./dutchtrainsw.png 274 8 01 20 93 -1 -1
   13 ./dutchtrainsw.png 386 8 01 20 2 -1 -1
   14 ./dutchtrainsw.png 402 8 01 20 2 -1 -1
   15 ./dutchtrainsw.png 418 8 01 20 2 -1 -1
   16 ./dutchtrainsw.png 434 8 01 20 2 -1 -1
   17 ./dutchtrainsw.png 450 8 01 20 2 -1 -1
   18 ./dutchtrainsw.png 466 8 01 20 2 -1 -1
   19 * 9	 02 00 00 01 01 00 00 00 00
   20 * 9	 0D 9E \D| 9E FF 08 00 00 00
   21 * 6	 01 00 01 FF 08 00
   22 ./dutchtrainsw.png 530 8 01 9 2 -1 -4
   23 ./dutchtrainsw.png 546 8 01 9 2 -1 -4
   24 ./dutchtrainsw.png 562 8 01 9 32 -16 -4
   25 ./dutchtrainsw.png 610 8 01 9 2 -1 -4
   26 ./dutchtrainsw.png 626 8 01 9 2 -1 -4
   27 ./dutchtrainsw.png 642 8 01 9 2 -1 -4
   28 ./dutchtrainsw.png 658 8 01 9 32 -16 -4
   29 ./dutchtrainsw.png 706 8 01 9 2 -1 -4
   30 * 9	 02 00 FF 01 01 00 00 00 00
   31 * 16	 04 00 1F 01 00 "[disabled]" 00
   32 * 53	 00 00 13 01 00
   00 00 00
   03 01
   04 01
   06 00
   05 00
   09 01 00
   0B 00 00
   0D 00
   0E 00 00 00 00
   14 00
   15 00
   16 FF
   24 FF
   17 63
   1B 00 00
   1C 00
   1D 00 00 00 00
   21 00
   23 00
   33 * 16	 04 00 1F 01 01 "[disabled]" 00
   34 * 53	 00 00 13 01 01 00 00 00 03 01 04 01 06 00 05 00 09 01 00 0B 00 00 0D 00 0E 00 00 00 00 14 00 15
	 00 16 FF 24 FF 17 63 1B 00 00 1C 00 1D 00 00 00 00 21 00 23 00
   35 * 16	 04 00 1F 01 02 "[disabled]" 00
   36 * 53	 00 00 13 01 02 00 00 00 03 01 04 01 06 00 05 00 09 01 00 0B 00 00 0D 00 0E 00 00 00 00 14 00 15
	 00 16 FF 24 FF 17 63 1B 00 00 1C 00 1D 00 00 00 00 21 00 23 00
   37 * 16	 04 00 1F 01 03 "[disabled]" 00
   38 * 53	 00 00 13 01 03 00 00 00 03 01 04 01 06 00 05 00 09 01 00 0B 00 00 0D 00 0E 00 00 00 00 14 00 15
	 00 16 FF 24 FF 17 63 1B 00 00 1C 00 1D 00 00 00 00 21 00 23 00
   39 * 16	 04 00 1F 01 04 "[disabled]" 00
   40 * 53	 00 00 13 01 04 00 00 00 03 01 04 01 06 00 05 00 09 01 00 0B 00 00 0D 00 0E 00 00 00 00 14 00 15
	 00 16 FF 24 FF 17 63 1B 00 00 1C 00 1D 00 00 00 00 21 00 23 00
   41 * 16	 04 00 1F 01 05 "[disabled]" 00
   42 * 53	 00 00 13 01 05 00 00 00 03 01 04 01 06 00 05 00 09 01 00 0B 00 00 0D 00 0E 00 00 00 00 14 00 15
	 00 16 FF 24 FF 17 63 1B 00 00 1C 00 1D 00 00 00 00 21 00 23 00
   43 * 16	 04 00 1F 01 06 "[disabled]" 00
   44 * 53	 00 00 13 01 06 00 00 00 03 01 04 01 06 00 05 00 09 01 00 0B 00 00 0D 00 0E 00 00 00 00 14 00 15
	 00 16 FF 24 FF 17 63 1B 00 00 1C 00 1D 00 00 00 00 21 00 23 00
   45 * 16	 04 00 1F 01 07 "[disabled]" 00
   46 * 53	 00 00 13 01 07 00 00 00 03 01 04 01 06 00 05 00 09 01 00 0B 00 00 0D 00 0E 00 00 00 00 14 00 15
	 00 16 FF 24 FF 17 63 1B 00 00 1C 00 1D 00 00 00 00 21 00 23 00
   47 * 16	 04 00 1F 01 08 "[disabled]" 00
   48 * 53	 00 00 13 01 08 00 00 00 03 01 04 01 06 00 05 00 09 01 00 0B 00 00 0D 00 0E 00 00 00 00 14 00 15
	 00 16 FF 24 FF 17 63 1B 00 00 1C 00 1D 00 00 00 00 21 00 23 00
   49 * 16	 04 00 1F 01 09 "[disabled]" 00
   50 * 53	 00 00 13 01 09 00 00 00 03 01 04 01 06 00 05 00 09 01 00 0B 00 00 0D 00 0E 00 00 00 00 14 00 15
	 00 16 FF 24 FF 17 63 1B 00 00 1C 00 1D 00 00 00 00 21 00 23 00
   51 * 16	 04 00 1F 01 0A "[disabled]" 00
   52 * 53	 00 00 13 01 0A 00 00 00 03 01 04 01 06 00 05 00 09 01 00 0B 00 00 0D 00 0E 00 00 00 00 14 00 15
	 00 16 FF 24 FF 17 63 1B 00 00 1C 00 1D 00 00 00 00 21 00 23 00
   53 * 16	 04 00 1F 01 0B "[disabled]" 00
   54 * 53	 00 00 13 01 0B 00 00 00 03 01 04 01 06 00 05 00 09 01 00 0B 00 00 0D 00 0E 00 00 00 00 14 00 15
	 00 16 FF 24 FF 17 63 1B 00 00 1C 00 1D 00 00 00 00 21 00 23 00
   55 * 16	 04 00 1F 01 0C "[disabled]" 00
   56 * 53	 00 00 13 01 0C 00 00 00 03 01 04 01 06 00 05 00 09 01 00 0B 00 00 0D 00 0E 00 00 00 00 14 00 15
	 00 16 FF 24 FF 17 63 1B 00 00 1C 00 1D 00 00 00 00 21 00 23 00
   57 * 16	 04 00 1F 01 0D "[disabled]" 00
   58 * 53	 00 00 13 01 0D 00 00 00 03 01 04 01 06 00 05 00 09 01 00 0B 00 00 0D 00 0E 00 00 00 00 14 00 15
	 00 16 FF 24 FF 17 63 1B 00 00 1C 00 1D 00 00 00 00 21 00 23 00
   59 * 16	 04 00 1F 01 0E "[disabled]" 00
   60 * 53	 00 00 13 01 0E 00 00 00 03 01 04 01 06 00 05 00 09 01 00 0B 00 00 0D 00 0E 00 00 00 00 14 00 15
	 00 16 FF 24 FF 17 63 1B 00 00 1C 00 1D 00 00 00 00 21 00 23 00
   61 * 16	 04 00 1F 01 0F "[disabled]" 00
   62 * 53	 00 00 13 01 0F 00 00 00 03 01 04 01 06 00 05 00 09 01 00 0B 00 00 0D 00 0E 00 00 00 00 14 00 15
	 00 16 FF 24 FF 17 63 1B 00 00 1C 00 1D 00 00 00 00 21 00 23 00
   63 * 16	 04 00 1F 01 10 "[disabled]" 00
   64 * 53	 00 00 13 01 10 00 00 00 03 01 04 01 06 00 05 00 09 01 00 0B 00 00 0D 00 0E 00 00 00 00 14 00 15
	 00 16 FF 24 FF 17 63 1B 00 00 1C 00 1D 00 00 00 00 21 00 23 00
   65 * 16	 04 00 1F 01 11 "[disabled]" 00
   66 * 53	 00 00 13 01 11 00 00 00 03 01 04 01 06 00 05 00 09 01 00 0B 00 00 0D 00 0E 00 00 00 00 14 00 15
	 00 16 FF 24 FF 17 63 1B 00 00 1C 00 1D 00 00 00 00 21 00 23 00
   67 * 16	 04 00 1F 01 12 "[disabled]" 00
   68 * 53	 00 00 13 01 12 00 00 00 03 01 04 01 06 00 05 00 09 01 00 0B 00 00 0D 00 0E 00 00 00 00 14 00 15
	 00 16 FF 24 FF 17 63 1B 00 00 1C 00 1D 00 00 00 00 21 00 23 00
   69 * 16	 04 00 1F 01 13 "[disabled]" 00
   70 * 53	 00 00 13 01 13 00 00 00 03 01 04 01 06 00 05 00 09 01 00 0B 00 00 0D 00 0E 00 00 00 00 14 00 15
	 00 16 FF 24 FF 17 63 1B 00 00 1C 00 1D 00 00 00 00 21 00 23 00
   71 * 16	 04 00 1F 01 14 "[disabled]" 00
   72 * 53	 00 00 13 01 14 00 00 00 03 01 04 01 06 00 05 00 09 01 00 0B 00 00 0D 00 0E 00 00 00 00 14 00 15
	 00 16 FF 24 FF 17 63 1B 00 00 1C 00 1D 00 00 00 00 21 00 23 00
   73 * 16	 04 00 1F 01 15 "[disabled]" 00
   74 * 53	 00 00 13 01 15 00 00 00 03 01 04 01 06 00 05 00 09 01 00 0B 00 00 0D 00 0E 00 00 00 00 14 00 15
	 00 16 FF 24 FF 17 63 1B 00 00 1C 00 1D 00 00 00 00 21 00 23 00
   75 * 16	 04 00 1F 01 16 "[disabled]" 00
   76 * 53	 00 00 13 01 16 00 00 00 03 01 04 01 06 00 05 00 09 01 00 0B 00 00 0D 00 0E 00 00 00 00 14 00 15
	 00 16 FF 24 FF 17 63 1B 00 00 1C 00 1D 00 00 00 00 21 00 23 00
   77 * 16	 04 00 1F 01 17 "[disabled]" 00
   78 * 53	 00 00 13 01 17 00 00 00 03 01 04 01 06 00 05 00 09 01 00 0B 00 00 0D 00 0E 00 00 00 00 14 00 15
	 00 16 FF 24 FF 17 63 1B 00 00 1C 00 1D 00 00 00 00 21 00 23 00
   79 * 16	 04 00 1F 01 18 "[disabled]" 00
   80 * 53	 00 00 13 01 18 00 00 00 03 01 04 01 06 00 05 00 09 01 00 0B 00 00 0D 00 0E 00 00 00 00 14 00 15
	 00 16 FF 24 FF 17 63 1B 00 00 1C 00 1D 00 00 00 00 21 00 23 00
   81 * 16	 04 00 1F 01 19 "[disabled]" 00
   82 * 53	 00 00 13 01 19 00 00 00 03 01 04 01 06 00 05 00 09 01 00 0B 00 00 0D 00 0E 00 00 00 00 14 00 15
	 00 16 FF 24 FF 17 63 1B 00 00 1C 00 1D 00 00 00 00 21 00 23 00
   83 * 16	 04 00 1F 01 1A "[disabled]" 00
   84 * 53	 00 00 13 01 1A 00 00 00 03 01 04 01 06 00 05 00 09 01 00 0B 00 00 0D 00 0E 00 00 00 00 14 00 15
	 00 16 FF 24 FF 17 63 1B 00 00 1C 00 1D 00 00 00 00 21 00 23 00
   85 * 16	 04 00 1F 01 1B "[disabled]" 00
   86 * 53	 00 00 13 01 1B 00 00 00 03 01 04 01 06 00 05 00 09 01 00 0B 00 00 0D 00 0E 00 00 00 00 14 00 15
	 00 16 FF 24 FF 17 63 1B 00 00 1C 00 1D 00 00 00 00 21 00 23 00
   87 * 16	 04 00 1F 01 1C "[disabled]" 00
   88 * 53	 00 00 13 01 1C 00 00 00 03 01 04 01 06 00 05 00 09 01 00 0B 00 00 0D 00 0E 00 00 00 00 14 00 15
	 00 16 FF 24 FF 17 63 1B 00 00 1C 00 1D 00 00 00 00 21 00 23 00
   89 * 16	 04 00 1F 01 1D "[disabled]" 00
   90 * 53	 00 00 13 01 1D 00 00 00 03 01 04 01 06 00 05 00 09 01 00 0B 00 00 0D 00 0E 00 00 00 00 14 00 15
	 00 16 FF 24 FF 17 63 1B 00 00 1C 00 1D 00 00 00 00 21 00 23 00
   91 * 16	 04 00 1F 01 1E "[disabled]" 00
   92 * 53	 00 00 13 01 1E 00 00 00 03 01 04 01 06 00 05 00 09 01 00 0B 00 00 0D 00 0E 00 00 00 00 14 00 15
	 00 16 FF 24 FF 17 63 1B 00 00 1C 00 1D 00 00 00 00 21 00 23 00
   93 * 16	 04 00 1F 01 1F "[disabled]" 00
   94 * 53	 00 00 13 01 1F 00 00 00 03 01 04 01 06 00 05 00 09 01 00 0B 00 00 0D 00 0E 00 00 00 00 14 00 15
	 00 16 FF 24 FF 17 63 1B 00 00 1C 00 1D 00 00 00 00 21 00 23 00
   95 * 16	 04 00 1F 01 " [disabled]" 00
   96 * 53	 00 00 13 01 20 00 00 00 03 01 04 01 06 00 05 00 09 01 00 0B 00 00 0D 00 0E 00 00 00 00 14 00 15
	 00 16 FF 24 FF 17 63 1B 00 00 1C 00 1D 00 00 00 00 21 00 23 00
   97 * 16	 04 00 1F 01 "![disabled]" 00
   98 * 53	 00 00 13 01 21 00 00 00 03 01 04 01 06 00 05 00 09 01 00 0B 00 00 0D 00 0E 00 00 00 00 14 00 15
	 00 16 FF 24 FF 17 63 1B 00 00 1C 00 1D 00 00 00 00 21 00 23 00
   99 * 16	 04 00 1F 01 "\"[disabled]" 00
  100 * 53	 00 00 13 01 22 00 00 00 03 01 04 01 06 00 05 00 09 01 00 0B 00 00 0D 00 0E 00 00 00 00 14 00 15
	 00 16 FF 24 FF 17 63 1B 00 00 1C 00 1D 00 00 00 00 21 00 23 00
  101 * 16	 04 00 1F 01 "#[disabled]" 00
  102 * 53	 00 00 13 01 23 00 00 00 03 01 04 01 06 00 05 00 09 01 00 0B 00 00 0D 00 0E 00 00 00 00 14 00 15
	 00 16 FF 24 FF 17 63 1B 00 00 1C 00 1D 00 00 00 00 21 00 23 00
  103 * 16	 04 00 1F 01 "$[disabled]" 00
  104 * 53	 00 00 13 01 24 00 00 00 03 01 04 01 06 00 05 00 09 01 00 0B 00 00 0D 00 0E 00 00 00 00 14 00 15
	 00 16 FF 24 FF 17 63 1B 00 00 1C 00 1D 00 00 00 00 21 00 23 00
  105 * 16	 04 00 1F 01 "%[disabled]" 00
  106 * 53	 00 00 13 01 25 00 00 00 03 01 04 01 06 00 05 00 09 01 00 0B 00 00 0D 00 0E 00 00 00 00 14 00 15
	 00 16 FF 24 FF 17 63 1B 00 00 1C 00 1D 00 00 00 00 21 00 23 00
  107 * 16	 04 00 1F 01 "&[disabled]" 00
  108 * 53	 00 00 13 01 26 00 00 00 03 01 04 01 06 00 05 00 09 01 00 0B 00 00 0D 00 0E 00 00 00 00 14 00 15
	 00 16 FF 24 FF 17 63 1B 00 00 1C 00 1D 00 00 00 00 21 00 23 00
  109 * 16	 04 00 1F 01 "'[disabled]" 00
  110 * 53	 00 00 13 01 27 00 00 00 03 01 04 01 06 00 05 00 09 01 00 0B 00 00 0D 00 0E 00 00 00 00 14 00 15
	 00 16 FF 24 FF 17 63 1B 00 00 1C 00 1D 00 00 00 00 21 00 23 00
  111 * 16	 04 00 1F 01 "([disabled]" 00
  112 * 53	 00 00 13 01 28 00 00 00 03 01 04 01 06 00 05 00 09 01 00 0B 00 00 0D 00 0E 00 00 00 00 14 00 15
	 00 16 FF 24 FF 17 63 1B 00 00 1C 00 1D 00 00 00 00 21 00 23 00
  113 * 16	 04 00 1F 01 ")[disabled]" 00
  114 * 53	 00 00 13 01 29 00 00 00 03 01 04 01 06 00 05 00 09 01 00 0B 00 00 0D 00 0E 00 00 00 00 14 00 15
	 00 16 FF 24 FF 17 63 1B 00 00 1C 00 1D 00 00 00 00 21 00 23 00
  115 * 16	 04 00 1F 01 "*[disabled]" 00
  116 * 53	 00 00 13 01 2A 00 00 00 03 01 04 01 06 00 05 00 09 01 00 0B 00 00 0D 00 0E 00 00 00 00 14 00 15
	 00 16 FF 24 FF 17 63 1B 00 00 1C 00 1D 00 00 00 00 21 00 23 00
  117 * 16	 04 00 1F 01 "+[disabled]" 00
  118 * 53	 00 00 13 01 2B 00 00 00 03 01 04 01 06 00 05 00 09 01 00 0B 00 00 0D 00 0E 00 00 00 00 14 00 15
	 00 16 FF 24 FF 17 63 1B 00 00 1C 00 1D 00 00 00 00 21 00 23 00
  119 * 16	 04 00 1F 01 ",[disabled]" 00
  120 * 53	 00 00 13 01 2C 00 00 00 03 01 04 01 06 00 05 00 09 01 00 0B 00 00 0D 00 0E 00 00 00 00 14 00 15
	 00 16 FF 24 FF 17 63 1B 00 00 1C 00 1D 00 00 00 00 21 00 23 00
  121 * 16	 04 00 1F 01 "-[disabled]" 00
  122 * 53	 00 00 13 01 2D 00 00 00 03 01 04 01 06 00 05 00 09 01 00 0B 00 00 0D 00 0E 00 00 00 00 14 00 15
	 00 16 FF 24 FF 17 63 1B 00 00 1C 00 1D 00 00 00 00 21 00 23 00
  123 * 16	 04 00 1F 01 ".[disabled]" 00
  124 * 53	 00 00 13 01 2E 00 00 00 03 01 04 01 06 00 05 00 09 01 00 0B 00 00 0D 00 0E 00 00 00 00 14 00 15
	 00 16 FF 24 FF 17 63 1B 00 00 1C 00 1D 00 00 00 00 21 00 23 00
  125 * 16	 04 00 1F 01 "/[disabled]" 00
  126 * 53	 00 00 13 01 2F 00 00 00 03 01 04 01 06 00 05 00 09 01 00 0B 00 00 0D 00 0E 00 00 00 00 14 00 15
	 00 16 FF 24 FF 17 63 1B 00 00 1C 00 1D 00 00 00 00 21 00 23 00
  127 * 16	 04 00 1F 01 "0[disabled]" 00
  128 * 53	 00 00 13 01 30 00 00 00 03 01 04 01 06 00 05 00 09 01 00 0B 00 00 0D 00 0E 00 00 00 00 14 00 15
	 00 16 FF 24 FF 17 63 1B 00 00 1C 00 1D 00 00 00 00 21 00 23 00
  129 * 16	 04 00 1F 01 "1[disabled]" 00
  130 * 53	 00 00 13 01 31 00 00 00 03 01 04 01 06 00 05 00 09 01 00 0B 00 00 0D 00 0E 00 00 00 00 14 00 15
	 00 16 FF 24 FF 17 63 1B 00 00 1C 00 1D 00 00 00 00 21 00 23 00
  131 * 16	 04 00 1F 01 "2[disabled]" 00
  132 * 53	 00 00 13 01 32 00 00 00 03 01 04 01 06 00 05 00 09 01 00 0B 00 00 0D 00 0E 00 00 00 00 14 00 15
	 00 16 FF 24 FF 17 63 1B 00 00 1C 00 1D 00 00 00 00 21 00 23 00
  133 * 16	 04 00 1F 01 "3[disabled]" 00
  134 * 53	 00 00 13 01 33 00 00 00 03 01 04 01 06 00 05 00 09 01 00 0B 00 00 0D 00 0E 00 00 00 00 14 00 15
	 00 16 FF 24 FF 17 63 1B 00 00 1C 00 1D 00 00 00 00 21 00 23 00
  135 * 16	 04 00 1F 01 "4[disabled]" 00
  136 * 53	 00 00 13 01 34 00 00 00 03 01 04 01 06 00 05 00 09 01 00 0B 00 00 0D 00 0E 00 00 00 00 14 00 15
	 00 16 FF 24 FF 17 63 1B 00 00 1C 00 1D 00 00 00 00 21 00 23 00
  137 * 16	 04 00 1F 01 "5[disabled]" 00
  138 * 53	 00 00 13 01 35 00 00 00 03 01 04 01 06 00 05 00 09 01 00 0B 00 00 0D 00 0E 00 00 00 00 14 00 15
	 00 16 FF 24 FF 17 63 1B 00 00 1C 00 1D 00 00 00 00 21 00 23 00
  139 * 16	 04 00 1F 01 "6[disabled]" 00
  140 * 53	 00 00 13 01 36 00 00 00 03 01 04 01 06 00 05 00 09 01 00 0B 00 00 0D 00 0E 00 00 00 00 14 00 15
	 00 16 FF 24 FF 17 63 1B 00 00 1C 00 1D 00 00 00 00 21 00 23 00
  141 * 16	 04 00 1F 01 "7[disabled]" 00
  142 * 53	 00 00 13 01 37 00 00 00 03 01 04 01 06 00 05 00 09 01 00 0B 00 00 0D 00 0E 00 00 00 00 14 00 15
	 00 16 FF 24 FF 17 63 1B 00 00 1C 00 1D 00 00 00 00 21 00 23 00
  143 * 16	 04 00 1F 01 "8[disabled]" 00
  144 * 53	 00 00 13 01 38 00 00 00 03 01 04 01 06 00 05 00 09 01 00 0B 00 00 0D 00 0E 00 00 00 00 14 00 15
	 00 16 FF 24 FF 17 63 1B 00 00 1C 00 1D 00 00 00 00 21 00 23 00
  145 * 16	 04 00 1F 01 "9[disabled]" 00
  146 * 53	 00 00 13 01 39 00 00 00 03 01 04 01 06 00 05 00 09 01 00 0B 00 00 0D 00 0E 00 00 00 00 14 00 15
	 00 16 FF 24 FF 17 63 1B 00 00 1C 00 1D 00 00 00 00 21 00 23 00
  147 * 16	 04 00 1F 01 ":[disabled]" 00
  148 * 53	 00 00 13 01 3A 00 00 00 03 01 04 01 06 00 05 00 09 01 00 0B 00 00 0D 00 0E 00 00 00 00 14 00 15
	 00 16 FF 24 FF 17 63 1B 00 00 1C 00 1D 00 00 00 00 21 00 23 00
  149 * 16	 04 00 1F 01 ";[disabled]" 00
  150 * 53	 00 00 13 01 3B 00 00 00 03 01 04 01 06 00 05 00 09 01 00 0B 00 00 0D 00 0E 00 00 00 00 14 00 15
	 00 16 FF 24 FF 17 63 1B 00 00 1C 00 1D 00 00 00 00 21 00 23 00
  151 * 16	 04 00 1F 01 "<[disabled]" 00
  152 * 53	 00 00 13 01 3C 00 00 00 03 01 04 01 06 00 05 00 09 01 00 0B 00 00 0D 00 0E 00 00 00 00 14 00 15
	 00 16 FF 24 FF 17 63 1B 00 00 1C 00 1D 00 00 00 00 21 00 23 00
  153 * 16	 04 00 1F 01 "=[disabled]" 00
  154 * 53	 00 00 13 01 3D 00 00 00 03 01 04 01 06 00 05 00 09 01 00 0B 00 00 0D 00 0E 00 00 00 00 14 00 15
	 00 16 FF 24 FF 17 63 1B 00 00 1C 00 1D 00 00 00 00 21 00 23 00
  155 * 16	 04 00 1F 01 ">[disabled]" 00
  156 * 53	 00 00 13 01 3E 00 00 00 03 01 04 01 06 00 05 00 09 01 00 0B 00 00 0D 00 0E 00 00 00 00 14 00 15
	 00 16 FF 24 FF 17 63 1B 00 00 1C 00 1D 00 00 00 00 21 00 23 00
  157 * 16	 04 00 1F 01 "?[disabled]" 00
  158 * 53	 00 00 13 01 3F 00 00 00 03 01 04 01 06 00 05 00 09 01 00 0B 00 00 0D 00 0E 00 00 00 00 14 00 15
	 00 16 FF 24 FF 17 63 1B 00 00 1C 00 1D 00 00 00 00 21 00 23 00
  159 * 16	 04 00 1F 01 "@[disabled]" 00
  160 * 53	 00 00 13 01 40 00 00 00 03 01 04 01 06 00 05 00 09 01 00 0B 00 00 0D 00 0E 00 00 00 00 14 00 15
	 00 16 FF 24 FF 17 63 1B 00 00 1C 00 1D 00 00 00 00 21 00 23 00
  161 * 16	 04 00 1F 01 "A[disabled]" 00
  162 * 53	 00 00 13 01 41 00 00 00 03 01 04 01 06 00 05 00 09 01 00 0B 00 00 0D 00 0E 00 00 00 00 14 00 15
	 00 16 FF 24 FF 17 63 1B 00 00 1C 00 1D 00 00 00 00 21 00 23 00
  163 * 16	 04 00 1F 01 "B[disabled]" 00
  164 * 53	 00 00 13 01 42 00 00 00 03 01 04 01 06 00 05 00 09 01 00 0B 00 00 0D 00 0E 00 00 00 00 14 00 15
	 00 16 FF 24 FF 17 63 1B 00 00 1C 00 1D 00 00 00 00 21 00 23 00
  165 * 16	 04 00 1F 01 "C[disabled]" 00
  166 * 53	 00 00 13 01 43 00 00 00 03 01 04 01 06 00 05 00 09 01 00 0B 00 00 0D 00 0E 00 00 00 00 14 00 15
	 00 16 FF 24 FF 17 63 1B 00 00 1C 00 1D 00 00 00 00 21 00 23 00
  167 * 16	 04 00 1F 01 "D[disabled]" 00
  168 * 53	 00 00 13 01 44 00 00 00 03 01 04 01 06 00 05 00 09 01 00 0B 00 00 0D 00 0E 00 00 00 00 14 00 15
	 00 16 FF 24 FF 17 63 1B 00 00 1C 00 1D 00 00 00 00 21 00 23 00
  169 * 16	 04 00 1F 01 "E[disabled]" 00
  170 * 53	 00 00 13 01 45 00 00 00 03 01 04 01 06 00 05 00 09 01 00 0B 00 00 0D 00 0E 00 00 00 00 14 00 15
	 00 16 FF 24 FF 17 63 1B 00 00 1C 00 1D 00 00 00 00 21 00 23 00
  171 * 16	 04 00 1F 01 "F[disabled]" 00
  172 * 53	 00 00 13 01 46 00 00 00 03 01 04 01 06 00 05 00 09 01 00 0B 00 00 0D 00 0E 00 00 00 00 14 00 15
	 00 16 FF 24 FF 17 63 1B 00 00 1C 00 1D 00 00 00 00 21 00 23 00
  173 * 16	 04 00 1F 01 "G[disabled]" 00
  174 * 53	 00 00 13 01 47 00 00 00 03 01 04 01 06 00 05 00 09 01 00 0B 00 00 0D 00 0E 00 00 00 00 14 00 15
	 00 16 FF 24 FF 17 63 1B 00 00 1C 00 1D 00 00 00 00 21 00 23 00
  175 * 16	 04 00 1F 01 "H[disabled]" 00
  176 * 53	 00 00 13 01 48 00 00 00 03 01 04 01 06 00 05 00 09 01 00 0B 00 00 0D 00 0E 00 00 00 00 14 00 15
	 00 16 FF 24 FF 17 63 1B 00 00 1C 00 1D 00 00 00 00 21 00 23 00
  177 * 16	 04 00 1F 01 "I[disabled]" 00
  178 * 53	 00 00 13 01 49 00 00 00 03 01 04 01 06 00 05 00 09 01 00 0B 00 00 0D 00 0E 00 00 00 00 14 00 15
	 00 16 FF 24 FF 17 63 1B 00 00 1C 00 1D 00 00 00 00 21 00 23 00
  179 * 16	 04 00 1F 01 "J[disabled]" 00
  180 * 53	 00 00 13 01 4A 00 00 00 03 01 04 01 06 00 05 00 09 01 00 0B 00 00 0D 00 0E 00 00 00 00 14 00 15
	 00 16 FF 24 FF 17 63 1B 00 00 1C 00 1D 00 00 00 00 21 00 23 00
  181 * 16	 04 00 1F 01 "K[disabled]" 00
  182 * 53	 00 00 13 01 4B 00 00 00 03 01 04 01 06 00 05 00 09 01 00 0B 00 00 0D 00 0E 00 00 00 00 14 00 15
	 00 16 FF 24 FF 17 63 1B 00 00 1C 00 1D 00 00 00 00 21 00 23 00
  183 * 16	 04 00 1F 01 "L[disabled]" 00
  184 * 53	 00 00 13 01 4C 00 00 00 03 01 04 01 06 00 05 00 09 01 00 0B 00 00 0D 00 0E 00 00 00 00 14 00 15
	 00 16 FF 24 FF 17 63 1B 00 00 1C 00 1D 00 00 00 00 21 00 23 00
  185 * 16	 04 00 1F 01 "M[disabled]" 00
  186 * 53	 00 00 13 01 4D 00 00 00 03 01 04 01 06 00 05 00 09 01 00 0B 00 00 0D 00 0E 00 00 00 00 14 00 15
	 00 16 FF 24 FF 17 63 1B 00 00 1C 00 1D 00 00 00 00 21 00 23 00
  187 * 16	 04 00 1F 01 "N[disabled]" 00
  188 * 53	 00 00 13 01 4E 00 00 00 03 01 04 01 06 00 05 00 09 01 00 0B 00 00 0D 00 0E 00 00 00 00 14 00 15
	 00 16 FF 24 FF 17 63 1B 00 00 1C 00 1D 00 00 00 00 21 00 23 00
  189 * 16	 04 00 1F 01 "O[disabled]" 00
  190 * 53	 00 00 13 01 4F 00 00 00 03 01 04 01 06 00 05 00 09 01 00 0B 00 00 0D 00 0E 00 00 00 00 14 00 15
	 00 16 FF 24 FF 17 63 1B 00 00 1C 00 1D 00 00 00 00 21 00 23 00
  191 * 16	 04 00 1F 01 "P[disabled]" 00
  192 * 53	 00 00 13 01 50 00 00 00 03 01 04 01 06 00 05 00 09 01 00 0B 00 00 0D 00 0E 00 00 00 00 14 00 15
	 00 16 FF 24 FF 17 63 1B 00 00 1C 00 1D 00 00 00 00 21 00 23 00
  193 * 16	 04 00 1F 01 "Q[disabled]" 00
  194 * 53	 00 00 13 01 51 00 00 00 03 01 04 01 06 00 05 00 09 01 00 0B 00 00 0D 00 0E 00 00 00 00 14 00 15
	 00 16 FF 24 FF 17 63 1B 00 00 1C 00 1D 00 00 00 00 21 00 23 00
  195 * 16	 04 00 1F 01 "R[disabled]" 00
  196 * 53	 00 00 13 01 52 00 00 00 03 01 04 01 06 00 05 00 09 01 00 0B 00 00 0D 00 0E 00 00 00 00 14 00 15
	 00 16 FF 24 FF 17 63 1B 00 00 1C 00 1D 00 00 00 00 21 00 23 00
  197 * 16	 04 00 1F 01 "S[disabled]" 00
  198 * 53	 00 00 13 01 53 00 00 00 03 01 04 01 06 00 05 00 09 01 00 0B 00 00 0D 00 0E 00 00 00 00 14 00 15
	 00 16 FF 24 FF 17 63 1B 00 00 1C 00 1D 00 00 00 00 21 00 23 00
  199 * 16	 04 00 1F 01 "T[disabled]" 00
  200 * 53	 00 00 13 01 54 00 00 00 03 01 04 01 06 00 05 00 09 01 00 0B 00 00 0D 00 0E 00 00 00 00 14 00 15
	 00 16 FF 24 FF 17 63 1B 00 00 1C 00 1D 00 00 00 00 21 00 23 00
  201 * 16	 04 00 1F 01 "U[disabled]" 00
  202 * 53	 00 00 13 01 55 00 00 00 03 01 04 01 06 00 05 00 09 01 00 0B 00 00 0D 00 0E 00 00 00 00 14 00 15
	 00 16 FF 24 FF 17 63 1B 00 00 1C 00 1D 00 00 00 00 21 00 23 00
  203 * 16	 04 00 1F 01 "V[disabled]" 00
  204 * 53	 00 00 13 01 56 00 00 00 03 01 04 01 06 00 05 00 09 01 00 0B 00 00 0D 00 0E 00 00 00 00 14 00 15
	 00 16 FF 24 FF 17 63 1B 00 00 1C 00 1D 00 00 00 00 21 00 23 00
  205 * 16	 04 00 1F 01 "W[disabled]" 00
  206 * 53	 00 00 13 01 57 00 00 00 03 01 04 01 06 00 05 00 09 01 00 0B 00 00 0D 00 0E 00 00 00 00 14 00 15
	 00 16 FF 24 FF 17 63 1B 00 00 1C 00 1D 00 00 00 00 21 00 23 00
  207 * 16	 04 00 1F 01 "X[disabled]" 00
  208 * 53	 00 00 13 01 58 00 00 00 03 01 04 01 06 00 05 00 09 01 00 0B 00 00 0D 00 0E 00 00 00 00 14 00 15
	 00 16 FF 24 FF 17 63 1B 00 00 1C 00 1D 00 00 00 00 21 00 23 00
  209 * 16	 04 00 1F 01 "Y[disabled]" 00
  210 * 53	 00 00 13 01 59 00 00 00 03 01 04 01 06 00 05 00 09 01 00 0B 00 00 0D 00 0E 00 00 00 00 14 00 15
	 00 16 FF 24 FF 17 63 1B 00 00 1C 00 1D 00 00 00 00 21 00 23 00
  211 * 16	 04 00 1F 01 "Z[disabled]" 00
  212 * 53	 00 00 13 01 5A 00 00 00 03 01 04 01 06 00 05 00 09 01 00 0B 00 00 0D 00 0E 00 00 00 00 14 00 15
	 00 16 FF 24 FF 17 63 1B 00 00 1C 00 1D 00 00 00 00 21 00 23 00
  213 * 16	 04 00 1F 01 "[[disabled]" 00
  214 * 53	 00 00 13 01 5B 00 00 00 03 01 04 01 06 00 05 00 09 01 00 0B 00 00 0D 00 0E 00 00 00 00 14 00 15
	 00 16 FF 24 FF 17 63 1B 00 00 1C 00 1D 00 00 00 00 21 00 23 00
  215 * 16	 04 00 1F 01 "\\[disabled]" 00
  216 * 53	 00 00 13 01 5C 00 00 00 03 01 04 01 06 00 05 00 09 01 00 0B 00 00 0D 00 0E 00 00 00 00 14 00 15
	 00 16 FF 24 FF 17 63 1B 00 00 1C 00 1D 00 00 00 00 21 00 23 00
  217 * 16	 04 00 1F 01 "][disabled]" 00
  218 * 53	 00 00 13 01 5D 00 00 00 03 01 04 01 06 00 05 00 09 01 00 0B 00 00 0D 00 0E 00 00 00 00 14 00 15
	 00 16 FF 24 FF 17 63 1B 00 00 1C 00 1D 00 00 00 00 21 00 23 00
  219 * 16	 04 00 1F 01 "^[disabled]" 00
  220 * 53	 00 00 13 01 5E 00 00 00 03 01 04 01 06 00 05 00 09 01 00 0B 00 00 0D 00 0E 00 00 00 00 14 00 15
	 00 16 FF 24 FF 17 63 1B 00 00 1C 00 1D 00 00 00 00 21 00 23 00
  221 * 16	 04 00 1F 01 "_[disabled]" 00
  222 * 53	 00 00 13 01 5F 00 00 00 03 01 04 01 06 00 05 00 09 01 00 0B 00 00 0D 00 0E 00 00 00 00 14 00 15
	 00 16 FF 24 FF 17 63 1B 00 00 1C 00 1D 00 00 00 00 21 00 23 00
  223 * 16	 04 00 1F 01 "`[disabled]" 00
  224 * 53	 00 00 13 01 60 00 00 00 03 01 04 01 06 00 05 00 09 01 00 0B 00 00 0D 00 0E 00 00 00 00 14 00 15
	 00 16 FF 24 FF 17 63 1B 00 00 1C 00 1D 00 00 00 00 21 00 23 00
  225 * 16	 04 00 1F 01 "a[disabled]" 00
  226 * 53	 00 00 13 01 61 00 00 00 03 01 04 01 06 00 05 00 09 01 00 0B 00 00 0D 00 0E 00 00 00 00 14 00 15
	 00 16 FF 24 FF 17 63 1B 00 00 1C 00 1D 00 00 00 00 21 00 23 00
  227 * 16	 04 00 1F 01 "b[disabled]" 00
  228 * 53	 00 00 13 01 62 00 00 00 03 01 04 01 06 00 05 00 09 01 00 0B 00 00 0D 00 0E 00 00 00 00 14 00 15
	 00 16 FF 24 FF 17 63 1B 00 00 1C 00 1D 00 00 00 00 21 00 23 00
  229 * 16	 04 00 1F 01 "c[disabled]" 00
  230 * 53	 00 00 13 01 63 00 00 00 03 01 04 01 06 00 05 00 09 01 00 0B 00 00 0D 00 0E 00 00 00 00 14 00 15
	 00 16 FF 24 FF 17 63 1B 00 00 1C 00 1D 00 00 00 00 21 00 23 00
  231 * 16	 04 00 1F 01 "d[disabled]" 00
  232 * 53	 00 00 13 01 64 00 00 00 03 01 04 01 06 00 05 00 09 01 00 0B 00 00 0D 00 0E 00 00 00 00 14 00 15
	 00 16 FF 24 FF 17 63 1B 00 00 1C 00 1D 00 00 00 00 21 00 23 00
  233 * 16	 04 00 1F 01 "e[disabled]" 00
  234 * 53	 00 00 13 01 65 00 00 00 03 01 04 01 06 00 05 00 09 01 00 0B 00 00 0D 00 0E 00 00 00 00 14 00 15
	 00 16 FF 24 FF 17 63 1B 00 00 1C 00 1D 00 00 00 00 21 00 23 00
  235 * 16	 04 00 1F 01 "f[disabled]" 00
  236 * 53	 00 00 13 01 66 00 00 00 03 01 04 01 06 00 05 00 09 01 00 0B 00 00 0D 00 0E 00 00 00 00 14 00 15
	 00 16 FF 24 FF 17 63 1B 00 00 1C 00 1D 00 00 00 00 21 00 23 00
  237 * 16	 04 00 1F 01 "g[disabled]" 00
  238 * 53	 00 00 13 01 67 00 00 00 03 01 04 01 06 00 05 00 09 01 00 0B 00 00 0D 00 0E 00 00 00 00 14 00 15
	 00 16 FF 24 FF 17 63 1B 00 00 1C 00 1D 00 00 00 00 21 00 23 00
  239 * 16	 04 00 1F 01 "h[disabled]" 00
  240 * 53	 00 00 13 01 68 00 00 00 03 01 04 01 06 00 05 00 09 01 00 0B 00 00 0D 00 0E 00 00 00 00 14 00 15
	 00 16 FF 24 FF 17 63 1B 00 00 1C 00 1D 00 00 00 00 21 00 23 00
  241 * 16	 04 00 1F 01 "i[disabled]" 00
  242 * 53	 00 00 13 01 69 00 00 00 03 01 04 01 06 00 05 00 09 01 00 0B 00 00 0D 00 0E 00 00 00 00 14 00 15
	 00 16 FF 24 FF 17 63 1B 00 00 1C 00 1D 00 00 00 00 21 00 23 00
  243 * 16	 04 00 1F 01 "j[disabled]" 00
  244 * 53	 00 00 13 01 6A 00 00 00 03 01 04 01 06 00 05 00 09 01 00 0B 00 00 0D 00 0E 00 00 00 00 14 00 15
	 00 16 FF 24 FF 17 63 1B 00 00 1C 00 1D 00 00 00 00 21 00 23 00
  245 * 16	 04 00 1F 01 "k[disabled]" 00
  246 * 53	 00 00 13 01 6B 00 00 00 03 01 04 01 06 00 05 00 09 01 00 0B 00 00 0D 00 0E 00 00 00 00 14 00 15
	 00 16 FF 24 FF 17 63 1B 00 00 1C 00 1D 00 00 00 00 21 00 23 00
  247 * 16	 04 00 1F 01 "l[disabled]" 00
  248 * 53	 00 00 13 01 6C 00 00 00 03 01 04 01 06 00 05 00 09 01 00 0B 00 00 0D 00 0E 00 00 00 00 14 00 15
	 00 16 FF 24 FF 17 63 1B 00 00 1C 00 1D 00 00 00 00 21 00 23 00
  249 * 16	 04 00 1F 01 "m[disabled]" 00
  250 * 53	 00 00 13 01 6D 00 00 00 03 01 04 01 06 00 05 00 09 01 00 0B 00 00 0D 00 0E 00 00 00 00 14 00 15
	 00 16 FF 24 FF 17 63 1B 00 00 1C 00 1D 00 00 00 00 21 00 23 00
  251 * 16	 04 00 1F 01 "n[disabled]" 00
  252 * 53	 00 00 13 01 6E 00 00 00 03 01 04 01 06 00 05 00 09 01 00 0B 00 00 0D 00 0E 00 00 00 00 14 00 15
	 00 16 FF 24 FF 17 63 1B 00 00 1C 00 1D 00 00 00 00 21 00 23 00
  253 * 16	 04 00 1F 01 "o[disabled]" 00
  254 * 53	 00 00 13 01 6F 00 00 00 03 01 04 01 06 00 05 00 09 01 00 0B 00 00 0D 00 0E 00 00 00 00 14 00 15
	 00 16 FF 24 FF 17 63 1B 00 00 1C 00 1D 00 00 00 00 21 00 23 00
  255 * 16	 04 00 1F 01 "p[disabled]" 00
  256 * 53	 00 00 13 01 70 00 00 00 03 01 04 01 06 00 05 00 09 01 00 0B 00 00 0D 00 0E 00 00 00 00 14 00 15
	 00 16 FF 24 FF 17 63 1B 00 00 1C 00 1D 00 00 00 00 21 00 23 00
  257 * 16	 04 00 1F 01 "q[disabled]" 00
  258 * 53	 00 00 13 01 71 00 00 00 03 01 04 01 06 00 05 00 09 01 00 0B 00 00 0D 00 0E 00 00 00 00 14 00 15
	 00 16 FF 24 FF 17 63 1B 00 00 1C 00 1D 00 00 00 00 21 00 23 00
  259 * 16	 04 00 1F 01 "r[disabled]" 00
  260 * 53	 00 00 13 01 72 00 00 00 03 01 04 01 06 00 05 00 09 01 00 0B 00 00 0D 00 0E 00 00 00 00 14 00 15
	 00 16 FF 24 FF 17 63 1B 00 00 1C 00 1D 00 00 00 00 21 00 23 00
  261 * 16	 04 00 1F 01 "s[disabled]" 00
  262 * 53	 00 00 13 01 73 00 00 00 03 01 04 01 06 00 05 00 09 01 00 0B 00 00 0D 00 0E 00 00 00 00 14 00 15
	 00 16 FF 24 FF 17 63 1B 00 00 1C 00 1D 00 00 00 00 21 00 23 00
  263 * 37	 04 00 1F 01 "-Mat '24 \"Blokkedoos\" (Electric)" 00
  264 * 60	 00 00 16 01 2D 00 B4 05 03 19 04 32 06 0F 05 00 08 01 09 64 00 0B C5 02 0D 0F 0E 3C 4C 00 00 13
	 00 14 1E 15 00 16 19 24 00 17 0C 19 30 1B 00 00 1C 00 1D 00 00 00 00 21 00 28 01 00
  265 * 6	 01 00 01 FF 08 00
  266 ./dutchtrainsw.png 498 104 01 25 8 -3 -12
  267 ./dutchtrainsw.png 514 104 01 17 22 -11 -10
  268 ./dutchtrainsw.png 546 104 01 14 33 -16 -10
  269 ./dutchtrainsw.png 594 104 01 17 22 -10 -10
  270 ./dutchtrainsw.png 626 104 01 25 8 -3 -12
  271 ./dutchtrainsw.png 642 104 01 17 22 -11 -10
  272 ./dutchtrainsw.png 674 104 01 14 33 -16 -10
  273 ./dutchtrainsw.png 722 104 01 17 22 -10 -10
  274 * 9	 02 00 01 01 01 00 00 00 00
  275 * 6	 01 00 01 FF 08 00
  276 ./dutchtrainsw.png 786 104 01 25 8 -3 -12
  277 ./dutchtrainsw.png 2 152 01 17 22 -12 -10
  278 ./dutchtrainsw.png 34 152 01 12 33 -16 -8
  279 ./dutchtrainsw.png 82 152 01 17 22 -10 -10
  280 ./dutchtrainsw.png 114 152 01 25 8 -3 -12
  281 ./dutchtrainsw.png 130 152 01 17 22 -12 -10
  282 ./dutchtrainsw.png 162 152 01 12 33 -16 -8
  283 ./dutchtrainsw.png 210 152 01 17 22 -10 -10
  284 * 9	 02 00 02 01 01 00 00 00 00
  285 * 6	 01 00 01 FF 08 00
  286 ./dutchtrainsw.png 274 152 01 25 8 -3 -12
  287 ./dutchtrainsw.png 290 152 01 17 22 -12 -10
  288 ./dutchtrainsw.png 322 152 01 12 33 -16 -8
  289 ./dutchtrainsw.png 370 152 01 17 22 -10 -10
  290 ./dutchtrainsw.png 402 152 01 25 8 -3 -12
  291 ./dutchtrainsw.png 418 152 01 17 22 -12 -10
  292 ./dutchtrainsw.png 450 152 01 12 33 -16 -8
  293 ./dutchtrainsw.png 498 152 01 17 22 -10 -10
  294 * 9	 02 00 03 01 01 00 00 00 00
  295 * 6	 01 00 01 FF 08 00
  296 ./dutchtrainsw.png 562 152 01 25 8 -3 -12
  297 ./dutchtrainsw.png 578 152 01 17 22 -12 -10
  298 ./dutchtrainsw.png 610 152 01 14 33 -16 -10
  299 ./dutchtrainsw.png 658 152 01 17 22 -10 -10
  300 ./dutchtrainsw.png 690 152 01 25 8 -3 -12
  301 ./dutchtrainsw.png 706 152 01 17 22 -12 -10
  302 ./dutchtrainsw.png 738 152 01 14 33 -16 -10
  303 ./dutchtrainsw.png 2 200 01 17 22 -10 -10
  304 * 9	 02 00 04 01 01 00 00 00 00
  305 * 6	 01 00 01 FF 08 00
  306 ./dutchtrainsw.png 66 200 01 25 8 -3 -12
  307 ./dutchtrainsw.png 82 200 01 17 22 -12 -10
  308 ./dutchtrainsw.png 114 200 01 12 33 -16 -8
  309 ./dutchtrainsw.png 162 200 01 17 22 -10 -10
  310 ./dutchtrainsw.png 194 200 01 25 8 -3 -12
  311 ./dutchtrainsw.png 210 200 01 17 22 -12 -10
  312 ./dutchtrainsw.png 242 200 01 12 33 -16 -8
  313 ./dutchtrainsw.png 290 200 01 17 22 -10 -10
  314 * 9	 02 00 05 01 01 00 00 00 00
  315 * 6	 01 00 01 FF 08 00
  316 ./dutchtrainsw.png 354 200 01 25 8 -3 -12
  317 ./dutchtrainsw.png 370 200 01 17 22 -12 -10
  318 ./dutchtrainsw.png 402 200 01 12 33 -16 -8
  319 ./dutchtrainsw.png 450 200 01 17 22 -10 -10
  320 ./dutchtrainsw.png 482 200 01 25 8 -3 -12
  321 ./dutchtrainsw.png 498 200 01 17 22 -12 -10
  322 ./dutchtrainsw.png 530 200 01 12 33 -16 -8
  323 ./dutchtrainsw.png 578 200 01 17 22 -10 -10
  324 * 9	 02 00 06 01 01 00 00 00 00
  325 * 6	 01 00 01 FF 08 00
  326 ./dutchtrainsw.png 642 200 01 25 8 -3 -12
  327 ./dutchtrainsw.png 658 200 01 17 22 -12 -10
  328 ./dutchtrainsw.png 690 200 01 14 33 -16 -10
  329 ./dutchtrainsw.png 738 200 01 17 22 -10 -10
  330 ./dutchtrainsw.png 770 200 01 25 8 -3 -12
  331 ./dutchtrainsw.png 2 248 01 17 22 -12 -10
  332 ./dutchtrainsw.png 34 248 01 14 33 -16 -10
  333 ./dutchtrainsw.png 82 248 01 17 22 -10 -10
  334 * 9	 02 00 07 01 01 00 00 00 00
  335 * 6	 01 00 01 FF 08 00
  336 ./dutchtrainsw.png 146 248 01 25 8 -3 -12
  337 ./dutchtrainsw.png 162 248 01 17 22 -12 -10
  338 ./dutchtrainsw.png 194 248 01 14 33 -16 -10
  339 ./dutchtrainsw.png 242 248 01 17 22 -10 -10
  340 ./dutchtrainsw.png 274 248 01 25 8 -3 -12
  341 ./dutchtrainsw.png 290 248 01 17 22 -12 -10
  342 ./dutchtrainsw.png 322 248 01 14 33 -16 -10
  343 ./dutchtrainsw.png 370 248 01 17 22 -10 -10
  344 * 9	 02 00 08 01 01 00 00 00 00
  345 * 6	 01 00 01 FF 01 00
  346 ./dutchtrainsw.png 434 248 01 14 50 -25 -8
  347 * 9	 02 00 09 01 01 00 00 00 00
  348 * 6	 01 00 01 FF 01 00
  349 ./dutchtrainsw.png 530 248 01 14 50 -25 -8
  350 * 9	 02 00 10 01 01 00 00 00 00
  351 * 26	 02 00 11 81 40 00 FF 04 01 00 00 00 02 00 01 01 02 00 02 02 03 00 03 03 FF 00
  352 * 14	 02 00 12 81 40 00 FF 01 04 00 00 00 FF 00
  353 * 18	 02 00 13 81 40 00 FF 02 04 00 00 00 06 00 01 01 FF 00
  354 * 22	 02 00 14 81 40 00 FF 03 04 00 00 00 05 00 01 01 06 00 02 02 FF 00
  355 * 26	 02 00 15 81 40 00 FF 04 04 00 00 00 05 00 01 01 05 00 02 02 07 00 03 03 FF 00
  356 * 30	 02 00 16 81 40 00 FF 05 04 00 00 00 05 00 01 01 05 00 02 02 05 00 03 03 07 00 04 04 FF 00
  357 * 34	 02 00 17 81 40 00 FF 06 04 00 00 00 05 00 01 01 08 00 02 02 05 00 03 03 05 00 04 04 07 00 05 05
	 FF 00
  358 * 38	 02 00 18 81 40 00 FF 07 04 00 00 00 05 00 01 01 05 00 02 02 05 00 03 03 08 00 04 04 05 00 05 05
	 07 00 06 06 FF 00
  359 * 38	 02 00 19 81 40 10 FF 07 12 00 00 00 13 00 01 01 14 00 02 02 15 00 03 03 16 00 04 04 17 00 05 05
	 18 00 06 06 FF 00
  360 * 14	 02 00 20 81 01 00 FF 01 11 00 00 0D 19 00
  361 * 14	 02 00 21 81 01 00 FF 01 09 00 00 0D 10 00
  362 * 7	 00 00 01 01 2D 12 FD
  363 * 10	 03 00 01 2D 01 FF 21 00 20 00
  364 * 7	 03 00 81 1B 00 20 00
  365 * 7	 03 00 81 1A 00 20 00
  366 * 7	 00 00 01 01 1B 12 FD
  367 * 7	 00 00 01 01 1A 12 FD
  368 * 37	 04 00 1F 01 ".Mat '34 \"Vlieg. Holl.\" (Diesel)" 00
  369 * 60	 00 00 16 01 2E 00 F6 13 03 19 06 0F 05 00 08 01 09 8C 00 0B 34 03 0D 14 0E 36 4C 00 00 13 00 14
	 35 15 00 16 19 24 00 17 11 19 10 1B 00 00 1C 00 1D 00 00 00 00 1E 02 21 00 28 01 00
  370 * 6	 01 00 01 FF 08 00
  371 ./dutchtrainsw.png 130 296 01 21 8 -3 -10
  372 ./dutchtrainsw.png 146 296 01 15 21 -12 -8
  373 ./dutchtrainsw.png 178 296 01 12 31 -15 -7
  374 ./dutchtrainsw.png 226 296 01 15 19 -9 -9
  375 ./dutchtrainsw.png 258 296 01 23 8 -3 -11
  376 ./dutchtrainsw.png 274 296 01 15 19 -7 -10
  377 ./dutchtrainsw.png 306 296 01 12 31 -15 -7
  378 ./dutchtrainsw.png 354 296 01 15 21 -10 -9
  379 * 9	 02 00 01 01 01 00 00 00 00
  380 * 6	 01 00 01 FF 08 00
  381 ./dutchtrainsw.png 418 296 01 21 8 -3 -12
  382 ./dutchtrainsw.png 434 296 01 15 20 -10 -9
  383 ./dutchtrainsw.png 466 296 01 12 28 -11 -7
  384 ./dutchtrainsw.png 514 296 01 15 20 -7 -8
  385 ./dutchtrainsw.png 546 296 01 21 8 -3 -9
  386 ./dutchtrainsw.png 562 296 01 15 20 -10 -9
  387 ./dutchtrainsw.png 594 296 01 12 28 -16 -7
  388 ./dutchtrainsw.png 642 296 01 15 20 -11 -10
  389 * 9	 02 00 02 01 01 00 00 00 00
  390 * 6	 01 00 01 FF 08 00
  391 ./dutchtrainsw.png 706 296 01 23 8 -3 -12
  392 ./dutchtrainsw.png 722 296 01 15 19 -9 -9
  393 ./dutchtrainsw.png 754 296 01 12 31 -14 -7
  394 ./dutchtrainsw.png 2 344 01 15 21 -8 -8
  395 ./dutchtrainsw.png 34 344 01 21 8 -3 -9
  396 ./dutchtrainsw.png 50 344 01 15 21 -10 -9
  397 ./dutchtrainsw.png 82 344 01 12 31 -16 -7
  398 ./dutchtrainsw.png 130 344 01 15 19 -11 -10
  399 * 9	 02 00 03 01 01 00 00 00 00
  400 * 6	 01 00 01 FF 08 00
  401 ./dutchtrainsw.png 194 344 01 21 8 -3 -10
  402 ./dutchtrainsw.png 210 344 01 15 21 -12 -8
  403 ./dutchtrainsw.png 242 344 01 12 31 -15 -7
  404 ./dutchtrainsw.png 290 344 01 15 19 -9 -9
  405 ./dutchtrainsw.png 322 344 01 23 8 -3 -11
  406 ./dutchtrainsw.png 338 344 01 15 19 -7 -10
  407 ./dutchtrainsw.png 370 344 01 12 31 -15 -7
  408 ./dutchtrainsw.png 418 344 01 15 21 -10 -9
  409 * 9	 02 00 04 01 01 00 00 00 00
  410 * 6	 01 00 01 FF 08 00
  411 ./dutchtrainsw.png 482 344 01 21 8 -3 -12
  412 ./dutchtrainsw.png 498 344 01 15 20 -10 -9
  413 ./dutchtrainsw.png 530 344 01 12 28 -11 -7
  414 ./dutchtrainsw.png 578 344 01 15 20 -7 -8
  415 ./dutchtrainsw.png 610 344 01 21 8 -3 -9
  416 ./dutchtrainsw.png 626 344 01 15 20 -10 -9
  417 ./dutchtrainsw.png 658 344 01 12 28 -16 -7
  418 ./dutchtrainsw.png 706 344 01 15 20 -11 -10
  419 * 9	 02 00 05 01 01 00 00 00 00
  420 * 6	 01 00 01 FF 08 00
  421 ./dutchtrainsw.png 770 344 01 23 8 -3 -12
  422 ./dutchtrainsw.png 2 392 01 15 19 -9 -9
  423 ./dutchtrainsw.png 34 392 01 12 31 -14 -7
  424 ./dutchtrainsw.png 82 392 01 15 21 -8 -8
  425 ./dutchtrainsw.png 114 392 01 21 8 -3 -9
  426 ./dutchtrainsw.png 130 392 01 15 21 -10 -9
  427 ./dutchtrainsw.png 162 392 01 12 31 -16 -7
  428 ./dutchtrainsw.png 210 392 01 15 19 -11 -10
  429 * 9	 02 00 06 01 01 00 00 00 00
  430 * 6	 01 00 01 FF 08 00
  431 ./dutchtrainsw.png 274 392 01 21 8 -3 -10
  432 ./dutchtrainsw.png 290 392 01 15 21 -12 -8
  433 ./dutchtrainsw.png 322 392 01 12 31 -15 -7
  434 ./dutchtrainsw.png 370 392 01 15 19 -9 -9
  435 ./dutchtrainsw.png 402 392 01 23 8 -3 -11
  436 ./dutchtrainsw.png 418 392 01 15 19 -7 -10
  437 ./dutchtrainsw.png 450 392 01 12 31 -15 -7
  438 ./dutchtrainsw.png 498 392 01 15 21 -10 -9
  439 * 9	 02 00 07 01 01 00 00 00 00
  440 * 6	 01 00 01 FF 08 00
  441 ./dutchtrainsw.png 562 392 01 21 8 -3 -12
  442 ./dutchtrainsw.png 578 392 01 15 20 -10 -9
  443 ./dutchtrainsw.png 610 392 01 12 28 -11 -7
  444 ./dutchtrainsw.png 658 392 01 15 20 -7 -8
  445 ./dutchtrainsw.png 690 392 01 21 8 -3 -9
  446 ./dutchtrainsw.png 706 392 01 15 20 -10 -9
  447 ./dutchtrainsw.png 738 392 01 12 28 -16 -7
  448 ./dutchtrainsw.png 2 440 01 15 20 -11 -10
  449 * 9	 02 00 08 01 01 00 00 00 00
  450 * 6	 01 00 01 FF 08 00
  451 ./dutchtrainsw.png 66 440 01 23 8 -3 -12
  452 ./dutchtrainsw.png 82 440 01 15 19 -9 -9
  453 ./dutchtrainsw.png 114 440 01 12 31 -14 -7
  454 ./dutchtrainsw.png 162 440 01 15 21 -8 -8
  455 ./dutchtrainsw.png 194 440 01 21 8 -3 -9
  456 ./dutchtrainsw.png 210 440 01 15 21 -10 -9
  457 ./dutchtrainsw.png 242 440 01 12 31 -16 -7
  458 ./dutchtrainsw.png 290 440 01 15 19 -11 -10
  459 * 9	 02 00 09 01 01 00 00 00 00
  460 * 6	 01 00 01 FF 01 00
  461 ./dutchtrainsw.png 354 440 01 12 50 -25 -6
  462 * 9	 02 00 10 01 01 00 00 00 00
  463 * 6	 01 00 01 FF 01 00
  464 ./dutchtrainsw.png 450 440 01 12 50 -25 -6
  465 * 9	 02 00 11 01 01 00 00 00 00
  466 * 6	 01 00 01 FF 01 00
  467 ./dutchtrainsw.png 546 440 01 12 50 -25 -6
  468 * 9	 02 00 12 01 01 00 00 00 00
  469 * 38	 02 00 13 81 40 00 FF 07 02 00 01 01 03 00 02 02 02 00 04 04 03 00 05 05 02 00 07 07 03 00 08 08
	 FF 00 09 FF 01 00
  470 * 38	 02 00 14 81 40 00 FF 07 05 00 01 01 06 00 02 02 05 00 04 04 06 00 05 05 05 00 07 07 06 00 08 08
	 FF 00 09 FF 04 00
  471 * 38	 02 00 15 81 40 00 FF 07 08 00 01 01 09 00 02 02 08 00 04 04 09 00 05 05 08 00 07 07 09 00 08 08
	 FF 00 09 FF 07 00
  472 * 18	 02 00 16 81 01 00 FF 02 13 00 00 0E 14 00 0F 21 15 00
  473 * 14	 02 00 17 81 0C 00 FF 01 01 80 11 11 16 00
  474 * 22	 02 00 18 81 40 00 FF 03 17 00 01 01 17 00 04 04 17 00 07 07 16 00
  475 * 18	 02 00 19 81 01 00 FF 02 10 00 00 0E 11 00 0F 21 12 00
  476 * 7	 00 00 01 01 2E 12 FD
  477 * 10	 03 00 01 2E 01 FF 19 00 18 00
  478 * 7	 03 00 81 1B 00 18 00
  479 * 7	 03 00 81 1A 00 18 00
  480 * 7	 00 00 01 01 1B 12 FD
  481 * 7	 00 00 01 01 1A 12 FD
  482 * 32	 04 00 1F 01 "/Mat '36/'40/'46 (Electric)" 00
  483 * 60	 00 00 16 01 2F 00 84 1C 03 19 04 32 06 0F 05 00 08 01 09 7D 00 0B 29 04 0D 17 0E 3C 4C 00 00 13
	 00 14 29 15 00 16 21 24 00 17 12 19 30 1B 00 00 1C 00 1D 00 00 00 00 21 00 28 01 00
  484 * 6	 01 00 01 FF 08 00
  485 ./dutchtrainsw.png 82 488 01 21 8 -3 -9
  486 ./dutchtrainsw.png 98 488 01 16 21 -12 -9
  487 ./dutchtrainsw.png 130 488 01 16 31 -16 -11
  488 ./dutchtrainsw.png 178 488 01 15 19 -10 -9
  489 ./dutchtrainsw.png 210 488 01 23 8 -3 -11
  490 ./dutchtrainsw.png 226 488 01 15 19 -9 -9
  491 ./dutchtrainsw.png 258 488 01 16 31 -14 -11
  492 ./dutchtrainsw.png 306 488 01 16 21 -9 -9
  493 * 9	 02 00 01 01 01 00 00 00 00
  494 * 6	 01 00 01 FF 08 00
  495 ./dutchtrainsw.png 370 488 01 23 8 -3 -11
  496 ./dutchtrainsw.png 386 488 01 16 22 -12 -9
  497 ./dutchtrainsw.png 418 488 01 13 33 -16 -8
  498 ./dutchtrainsw.png 466 488 01 16 22 -10 -9
  499 ./dutchtrainsw.png 498 488 01 23 8 -3 -11
  500 ./dutchtrainsw.png 514 488 01 16 22 -12 -9
  501 ./dutchtrainsw.png 546 488 01 13 33 -16 -8
  502 ./dutchtrainsw.png 594 488 01 16 22 -10 -9
  503 * 9	 02 00 02 01 01 00 00 00 00
  504 * 6	 01 00 01 FF 08 00
  505 ./dutchtrainsw.png 658 488 01 23 8 -3 -11
  506 ./dutchtrainsw.png 674 488 01 16 22 -12 -9
  507 ./dutchtrainsw.png 706 488 01 13 33 -16 -8
  508 ./dutchtrainsw.png 754 488 01 16 22 -10 -9
  509 ./dutchtrainsw.png 786 488 01 23 8 -3 -11
  510 ./dutchtrainsw.png 2 536 01 16 22 -12 -9
  511 ./dutchtrainsw.png 34 536 01 13 33 -16 -8
  512 ./dutchtrainsw.png 82 536 01 16 22 -10 -9
  513 * 9	 02 00 03 01 01 00 00 00 00
  514 * 6	 01 00 01 FF 08 00
  515 ./dutchtrainsw.png 146 536 01 23 8 -3 -11
  516 ./dutchtrainsw.png 162 536 01 15 19 -9 -9
  517 ./dutchtrainsw.png 194 536 01 16 31 -14 -11
  518 ./dutchtrainsw.png 242 536 01 16 21 -9 -9
  519 ./dutchtrainsw.png 274 536 01 21 8 -3 -9
  520 ./dutchtrainsw.png 290 536 01 16 21 -12 -9
  521 ./dutchtrainsw.png 322 536 01 16 31 -16 -11
  522 ./dutchtrainsw.png 370 536 01 15 19 -10 -9
  523 * 9	 02 00 04 01 01 00 00 00 00
  524 * 6	 01 00 01 FF 08 00
  525 ./dutchtrainsw.png 434 536 01 23 8 -3 -11
  526 ./dutchtrainsw.png 450 536 01 15 19 -10 -8
  527 ./dutchtrainsw.png 482 536 01 13 31 -14 -8
  528 ./dutchtrainsw.png 530 536 01 15 21 -9 -8
  529 ./dutchtrainsw.png 562 536 01 21 8 -3 -10
  530 ./dutchtrainsw.png 578 536 01 15 21 -11 -8
  531 ./dutchtrainsw.png 610 536 01 13 31 -16 -8
  532 ./dutchtrainsw.png 658 536 01 15 19 -8 -8
  533 * 9	 02 00 05 01 01 00 00 00 00
  534 * 6	 01 00 01 FF 01 00
  535 ./dutchtrainsw.png 722 536 01 16 50 -25 -10
  536 * 9	 02 00 06 01 01 00 00 00 00
  537 * 6	 01 00 01 FF 08 00
  538 ./dutchtrainsw.png 18 584 01 21 8 -3 -10
  539 ./dutchtrainsw.png 34 584 01 17 21 -12 -10
  540 ./dutchtrainsw.png 66 584 01 16 31 -16 -11
  541 ./dutchtrainsw.png 114 584 01 15 19 -9 -9
  542 ./dutchtrainsw.png 146 584 01 23 8 -3 -11
  543 ./dutchtrainsw.png 162 584 01 15 19 -9 -9
  544 ./dutchtrainsw.png 194 584 01 16 31 -14 -11
  545 ./dutchtrainsw.png 242 584 01 17 21 -9 -10
  546 * 9	 02 00 07 01 01 00 00 00 00
  547 * 6	 01 00 01 FF 08 00
  548 ./dutchtrainsw.png 306 584 01 19 8 -3 -12
  549 ./dutchtrainsw.png 322 584 01 14 18 -8 -9
  550 ./dutchtrainsw.png 354 584 01 12 26 -9 -7
  551 ./dutchtrainsw.png 386 584 01 14 18 -5 -7
  552 ./dutchtrainsw.png 418 584 01 19 8 -3 -7
  553 ./dutchtrainsw.png 434 584 01 14 18 -12 -7
  554 ./dutchtrainsw.png 466 584 01 12 26 -16 -7
  555 ./dutchtrainsw.png 498 584 01 14 18 -10 -9
  556 * 9	 02 00 08 01 01 00 00 00 00
  557 * 14	 02 00 18 81 0C 00 FF 01 02 80 11 11 08 00
  558 * 6	 01 00 01 FF 08 00
  559 ./dutchtrainsw.png 578 584 01 23 8 -3 -12
  560 ./dutchtrainsw.png 594 584 01 15 19 -9 -9
  561 ./dutchtrainsw.png 626 584 01 13 31 -15 -8
  562 ./dutchtrainsw.png 674 584 01 15 21 -8 -8
  563 ./dutchtrainsw.png 706 584 01 21 8 -3 -9
  564 ./dutchtrainsw.png 722 584 01 15 21 -12 -8
  565 ./dutchtrainsw.png 754 584 01 13 31 -15 -8
  566 ./dutchtrainsw.png 2 632 01 15 19 -10 -9
  567 * 9	 02 00 09 01 01 00 00 00 00
  568 * 6	 01 00 01 FF 01 00
  569 ./dutchtrainsw.png 66 632 01 16 50 -25 -10
  570 * 9	 02 00 10 01 01 00 00 00 00
  571 * 6	 01 00 01 FF 08 00
  572 ./dutchtrainsw.png 162 632 01 21 8 -3 -10
  573 ./dutchtrainsw.png 178 632 01 15 21 -11 -8
  574 ./dutchtrainsw.png 210 632 01 13 31 -16 -8
  575 ./dutchtrainsw.png 258 632 01 15 19 -8 -8
  576 ./dutchtrainsw.png 290 632 01 23 8 -3 -11
  577 ./dutchtrainsw.png 306 632 01 15 19 -10 -8
  578 ./dutchtrainsw.png 338 632 01 13 31 -14 -8
  579 ./dutchtrainsw.png 386 632 01 15 21 -9 -8
  580 * 9	 02 00 11 01 01 00 00 00 00
  581 * 6	 01 00 01 FF 08 00
  582 ./dutchtrainsw.png 450 632 01 21 8 -3 -8
  583 ./dutchtrainsw.png 466 632 01 16 21 -13 -8
  584 ./dutchtrainsw.png 498 632 01 16 31 -16 -11
  585 ./dutchtrainsw.png 546 632 01 15 19 -10 -9
  586 ./dutchtrainsw.png 578 632 01 23 8 -3 -12
  587 ./dutchtrainsw.png 594 632 01 15 19 -8 -9
  588 ./dutchtrainsw.png 626 632 01 16 31 -14 -11
  589 ./dutchtrainsw.png 674 632 01 16 21 -9 -9
  590 * 9	 02 00 12 01 01 00 00 00 00
  591 * 6	 01 00 01 FF 08 00
  592 ./dutchtrainsw.png 738 632 01 21 8 -3 -10
  593 ./dutchtrainsw.png 754 632 01 15 20 -11 -8
  594 ./dutchtrainsw.png 2 680 01 12 29 -12 -7
  595 ./dutchtrainsw.png 50 680 01 15 20 -8 -8
  596 ./dutchtrainsw.png 82 680 01 21 8 -3 -10
  597 ./dutchtrainsw.png 98 680 01 15 20 -11 -8
  598 ./dutchtrainsw.png 130 680 01 12 29 -16 -7
  599 ./dutchtrainsw.png 178 680 01 15 20 -10 -9
  600 * 9	 02 00 13 01 01 00 00 00 00
  601 * 14	 02 00 19 81 0C 00 FF 01 01 80 11 11 13 00
  602 * 6	 01 00 01 FF 08 00
  603 ./dutchtrainsw.png 258 680 01 21 8 -3 -10
  604 ./dutchtrainsw.png 274 680 01 15 20 -11 -8
  605 ./dutchtrainsw.png 306 680 01 13 29 -12 -8
  606 ./dutchtrainsw.png 354 680 01 15 20 -8 -8
  607 ./dutchtrainsw.png 386 680 01 21 8 -3 -10
  608 ./dutchtrainsw.png 402 680 01 15 20 -11 -8
  609 ./dutchtrainsw.png 434 680 01 13 29 -16 -8
  610 ./dutchtrainsw.png 482 680 01 15 20 -10 -9
  611 * 9	 02 00 14 01 01 00 00 00 00
  612 * 14	 02 00 20 81 0C 00 FF 01 01 80 11 11 14 00
  613 * 6	 01 00 01 FF 08 00
  614 ./dutchtrainsw.png 562 680 01 23 8 -3 -11
  615 ./dutchtrainsw.png 578 680 01 16 22 -13 -8
  616 ./dutchtrainsw.png 610 680 01 12 33 -16 -7
  617 ./dutchtrainsw.png 658 680 01 16 22 -10 -9
  618 ./dutchtrainsw.png 690 680 01 23 8 -3 -11
  619 ./dutchtrainsw.png 706 680 01 16 22 -11 -9
  620 ./dutchtrainsw.png 738 680 01 12 33 -16 -7
  621 ./dutchtrainsw.png 2 728 01 16 22 -10 -9
  622 * 9	 02 00 15 01 01 00 00 00 00
  623 * 6	 01 00 01 FF 08 00
  624 ./dutchtrainsw.png 66 728 01 23 8 -3 -11
  625 ./dutchtrainsw.png 82 728 01 15 19 -10 -8
  626 ./dutchtrainsw.png 114 728 01 16 31 -14 -11
  627 ./dutchtrainsw.png 162 728 01 16 21 -9 -9
  628 ./dutchtrainsw.png 194 728 01 21 8 -3 -9
  629 ./dutchtrainsw.png 210 728 01 16 21 -11 -9
  630 ./dutchtrainsw.png 242 728 01 16 31 -16 -11
  631 ./dutchtrainsw.png 290 728 01 15 19 -10 -9
  632 * 9	 02 00 16 01 01 00 00 00 00
  633 * 6	 01 00 01 FF 01 00
  634 ./dutchtrainsw.png 354 728 01 16 50 -25 -10
  635 * 9	 02 00 17 01 01 00 00 00 00
  636 * 14	 02 07 21 81 40 00 FF 01 07 00 00 00 FF 00
  637 * 18	 02 00 22 81 40 00 FF 02 07 00 00 00 09 00 01 01 FF 00
  638 * 22	 02 00 23 81 40 00 FF 03 07 00 00 00 18 00 01 01 09 00 02 02 FF 00
  639 * 26	 02 00 24 81 40 00 FF 04 01 00 00 00 02 00 01 01 03 00 02 02 04 00 03 03 FF 00
  640 * 30	 02 00 25 81 40 00 FF 05 12 00 00 00 19 00 01 01 20 00 02 02 15 00 03 03 16 00 04 04 FF 00
  641 * 30	 02 00 60 81 40 10 FF 05 21 00 00 00 22 00 01 01 23 00 02 02 24 00 03 03 25 00 04 10 FF 00
  642 * 7	 00 00 01 01 2F 12 FD
  643 * 10	 03 00 01 2F 01 FF 06 00 60 00
  644 * 7	 03 00 81 1B 00 60 00
  645 * 7	 03 00 81 1A 00 60 00
  646 * 7	 00 00 01 01 1B 12 FD
  647 * 7	 00 00 01 01 1A 12 FD
  648 * 22	 04 00 1F 01 "0Mat '41 (Diesel)" 00
  649 * 62	 00 00 17 01 30 00 84 1C 03 19 04 32 06 0F 05 00 08 01 09 A0 00 0B 98 07 0D 2B 0E 36 4C 00 00 13
	 00 14 2E 15 00 16 2E 24 00 17 1E 19 10 1B 00 00 1C 00 1D 00 00 00 00 1E 02 21 00 28 01 00
  650 * 6	 01 00 01 FF 08 00
  651 ./dutchtrainsw.png 674 728 01 21 8 -3 -8
  652 ./dutchtrainsw.png 690 728 01 15 21 -12 -8
  653 ./dutchtrainsw.png 722 728 01 12 31 -15 -7
  654 ./dutchtrainsw.png 770 728 01 15 19 -10 -10
  655 ./dutchtrainsw.png 2 776 01 23 8 -3 -12
  656 ./dutchtrainsw.png 18 776 01 15 19 -7 -10
  657 ./dutchtrainsw.png 50 776 01 12 31 -15 -7
  658 ./dutchtrainsw.png 98 776 01 15 21 -9 -9
  659 * 9	 02 00 01 01 01 00 00 00 00
  660 * 6	 01 00 01 FF 08 00
  661 ./dutchtrainsw.png 162 776 01 21 8 -3 -10
  662 ./dutchtrainsw.png 178 776 01 15 20 -10 -9
  663 ./dutchtrainsw.png 210 776 01 12 29 -11 -7
  664 ./dutchtrainsw.png 258 776 01 15 20 -8 -9
  665 ./dutchtrainsw.png 290 776 01 21 8 -3 -10
  666 ./dutchtrainsw.png 306 776 01 15 20 -10 -9
  667 ./dutchtrainsw.png 338 776 01 12 29 -17 -7
  668 ./dutchtrainsw.png 386 776 01 15 20 -10 -10
  669 * 9	 02 00 02 01 01 00 00 00 00
  670 * 6	 01 00 01 FF 08 00
  671 ./dutchtrainsw.png 450 776 01 21 8 -3 -10
  672 ./dutchtrainsw.png 466 776 01 15 20 -10 -9
  673 ./dutchtrainsw.png 498 776 01 12 29 -11 -7
  674 ./dutchtrainsw.png 546 776 01 15 20 -8 -9
  675 ./dutchtrainsw.png 578 776 01 21 8 -3 -10
  676 ./dutchtrainsw.png 594 776 01 15 20 -10 -9
  677 ./dutchtrainsw.png 626 776 01 12 29 -17 -7
  678 ./dutchtrainsw.png 674 776 01 15 20 -10 -10
  679 * 9	 02 00 03 01 01 00 00 00 00
  680 * 6	 01 00 01 FF 08 00
  681 ./dutchtrainsw.png 738 776 01 23 8 -3 -11
  682 ./dutchtrainsw.png 754 776 01 16 22 -12 -9
  683 ./dutchtrainsw.png 2 824 01 13 33 -15 -8
  684 ./dutchtrainsw.png 50 824 01 16 22 -10 -10
  685 ./dutchtrainsw.png 82 824 01 23 8 -3 -11
  686 ./dutchtrainsw.png 98 824 01 16 22 -10 -10
  687 ./dutchtrainsw.png 130 824 01 13 33 -17 -8
  688 ./dutchtrainsw.png 178 824 01 16 22 -10 -10
  689 * 9	 02 00 04 01 01 00 00 00 00
  690 * 6	 01 00 01 FF 08 00
  691 ./dutchtrainsw.png 242 824 01 23 8 -3 -11
  692 ./dutchtrainsw.png 258 824 01 15 19 -9 -9
  693 ./dutchtrainsw.png 290 824 01 12 31 -13 -7
  694 ./dutchtrainsw.png 338 824 01 15 21 -9 -9
  695 ./dutchtrainsw.png 370 824 01 21 8 -3 -9
  696 ./dutchtrainsw.png 386 824 01 15 21 -10 -9
  697 ./dutchtrainsw.png 418 824 01 12 31 -17 -7
  698 ./dutchtrainsw.png 466 824 01 15 19 -10 -10
  699 * 9	 02 00 05 01 01 00 00 00 00
  700 * 6	 01 00 01 FF 08 00
  701 ./dutchtrainsw.png 530 824 01 21 8 -3 -8
  702 ./dutchtrainsw.png 546 824 01 15 21 -12 -8
  703 ./dutchtrainsw.png 578 824 01 12 31 -15 -7
  704 ./dutchtrainsw.png 626 824 01 15 19 -10 -10
  705 ./dutchtrainsw.png 658 824 01 23 8 -3 -12
  706 ./dutchtrainsw.png 674 824 01 15 19 -7 -10
  707 ./dutchtrainsw.png 706 824 01 12 31 -15 -7
  708 ./dutchtrainsw.png 754 824 01 15 21 -8 -8
  709 * 9	 02 00 06 01 01 00 00 00 00
  710 * 6	 01 00 01 FF 08 00
  711 ./dutchtrainsw.png 18 872 01 21 8 -3 -10
  712 ./dutchtrainsw.png 34 872 01 15 20 -10 -9
  713 ./dutchtrainsw.png 66 872 01 12 29 -11 -7
  714 ./dutchtrainsw.png 114 872 01 15 20 -8 -9
  715 ./dutchtrainsw.png 146 872 01 21 8 -3 -10
  716 ./dutchtrainsw.png 162 872 01 15 20 -10 -9
  717 ./dutchtrainsw.png 194 872 01 12 29 -17 -7
  718 ./dutchtrainsw.png 242 872 01 15 20 -9 -9
  719 * 9	 02 00 07 01 01 00 00 00 00
  720 * 6	 01 00 01 FF 08 00
  721 ./dutchtrainsw.png 306 872 01 21 8 -3 -10
  722 ./dutchtrainsw.png 322 872 01 15 20 -10 -9
  723 ./dutchtrainsw.png 354 872 01 12 29 -11 -7
  724 ./dutchtrainsw.png 402 872 01 15 20 -8 -9
  725 ./dutchtrainsw.png 434 872 01 21 8 -3 -10
  726 ./dutchtrainsw.png 450 872 01 15 20 -10 -9
  727 ./dutchtrainsw.png 482 872 01 12 29 -17 -7
  728 ./dutchtrainsw.png 530 872 01 15 20 -9 -9
  729 * 9	 02 00 08 01 01 00 00 00 00
  730 * 6	 01 00 01 FF 08 00
  731 ./dutchtrainsw.png 594 872 01 23 8 -3 -11
  732 ./dutchtrainsw.png 610 872 01 16 22 -12 -9
  733 ./dutchtrainsw.png 642 872 01 13 33 -15 -8
  734 ./dutchtrainsw.png 690 872 01 16 22 -10 -10
  735 ./dutchtrainsw.png 722 872 01 23 8 -3 -11
  736 ./dutchtrainsw.png 738 872 01 16 22 -10 -10
  737 ./dutchtrainsw.png 2 920 01 13 33 -17 -8
  738 ./dutchtrainsw.png 50 920 01 16 22 -9 -9
  739 * 9	 02 00 09 01 01 00 00 00 00
  740 * 6	 01 00 01 FF 08 00
  741 ./dutchtrainsw.png 114 920 01 23 8 -3 -11
  742 ./dutchtrainsw.png 130 920 01 15 19 -9 -9
  743 ./dutchtrainsw.png 162 920 01 12 31 -13 -7
  744 ./dutchtrainsw.png 210 920 01 15 21 -9 -9
  745 ./dutchtrainsw.png 242 920 01 21 8 -3 -9
  746 ./dutchtrainsw.png 258 920 01 15 21 -10 -9
  747 ./dutchtrainsw.png 290 920 01 12 31 -17 -7
  748 ./dutchtrainsw.png 338 920 01 15 19 -9 -9
  749 * 9	 02 00 10 01 01 00 00 00 00
  750 * 6	 01 00 01 FF 08 00
  751 ./dutchtrainsw.png 402 920 01 21 8 -3 -8
  752 ./dutchtrainsw.png 418 920 01 15 21 -12 -8
  753 ./dutchtrainsw.png 450 920 01 12 31 -15 -7
  754 ./dutchtrainsw.png 498 920 01 15 19 -10 -10
  755 ./dutchtrainsw.png 530 920 01 23 8 -3 -12
  756 ./dutchtrainsw.png 546 920 01 15 19 -7 -10
  757 ./dutchtrainsw.png 578 920 01 12 31 -15 -7
  758 ./dutchtrainsw.png 626 920 01 15 21 -8 -8
  759 * 9	 02 00 11 01 01 00 00 00 00
  760 * 6	 01 00 01 FF 08 00
  761 ./dutchtrainsw.png 690 920 01 21 8 -3 -10
  762 ./dutchtrainsw.png 706 920 01 15 20 -10 -9
  763 ./dutchtrainsw.png 738 920 01 12 29 -11 -7
  764 ./dutchtrainsw.png 2 968 01 15 20 -8 -9
  765 ./dutchtrainsw.png 34 968 01 21 8 -3 -10
  766 ./dutchtrainsw.png 50 968 01 15 20 -10 -9
  767 ./dutchtrainsw.png 82 968 01 12 29 -17 -7
  768 ./dutchtrainsw.png 130 968 01 15 20 -9 -9
  769 * 9	 02 00 12 01 01 00 00 00 00
  770 * 6	 01 00 01 FF 08 00
  771 ./dutchtrainsw.png 194 968 01 21 8 -3 -10
  772 ./dutchtrainsw.png 210 968 01 15 20 -10 -9
  773 ./dutchtrainsw.png 242 968 01 12 29 -11 -7
  774 ./dutchtrainsw.png 290 968 01 15 20 -8 -9
  775 ./dutchtrainsw.png 322 968 01 21 8 -3 -10
  776 ./dutchtrainsw.png 338 968 01 15 20 -10 -9
  777 ./dutchtrainsw.png 370 968 01 12 29 -17 -7
  778 ./dutchtrainsw.png 418 968 01 15 20 -9 -9
  779 * 9	 02 00 13 01 01 00 00 00 00
  780 * 6	 01 00 01 FF 08 00
  781 ./dutchtrainsw.png 482 968 01 23 8 -3 -11
  782 ./dutchtrainsw.png 498 968 01 16 22 -12 -9
  783 ./dutchtrainsw.png 530 968 01 13 33 -15 -8
  784 ./dutchtrainsw.png 578 968 01 16 22 -10 -10
  785 ./dutchtrainsw.png 610 968 01 23 8 -3 -11
  786 ./dutchtrainsw.png 626 968 01 16 22 -10 -10
  787 ./dutchtrainsw.png 658 968 01 13 33 -17 -8
  788 ./dutchtrainsw.png 706 968 01 16 22 -9 -9
  789 * 9	 02 00 14 01 01 00 00 00 00
  790 * 6	 01 00 01 FF 08 00
  791 ./dutchtrainsw.png 770 968 01 23 8 -3 -11
  792 ./dutchtrainsw.png 2 1016 01 15 19 -9 -9
  793 ./dutchtrainsw.png 34 1016 01 12 31 -13 -7
  794 ./dutchtrainsw.png 82 1016 01 15 21 -9 -9
  795 ./dutchtrainsw.png 114 1016 01 21 8 -3 -9
  796 ./dutchtrainsw.png 130 1016 01 15 21 -10 -9
  797 ./dutchtrainsw.png 162 1016 01 12 31 -17 -7
  798 ./dutchtrainsw.png 210 1016 01 15 19 -9 -9
  799 * 9	 02 00 15 01 01 00 00 00 00
  800 * 6	 01 00 01 FF 01 00
  801 ./dutchtrainsw.png 274 1016 01 12 50 -25 -6
  802 * 9	 02 00 16 01 01 00 00 00 00
  803 * 6	 01 00 01 FF 01 00
  804 ./dutchtrainsw.png 370 1016 01 12 50 -25 -6
  805 * 9	 02 00 17 01 01 00 00 00 00
  806 * 6	 01 00 01 FF 01 00
  807 ./dutchtrainsw.png 466 1016 01 12 50 -25 -6
  808 * 9	 02 00 18 01 01 00 00 00 00
  809 * 50	 02 00 21 81 40 00 FF 0A 01 00 00 00 02 00 01 01 03 00 02 02 04 00 03 03 05 00 04 04 01 00 05 05
	 02 00 06 06 03 00 07 07 04 00 08 08 05 00 09 09 FF 00
  810 * 50	 02 00 22 81 40 00 FF 0A 06 00 00 00 07 00 01 01 08 00 02 02 09 00 03 03 10 00 04 04 06 00 05 05
	 07 00 06 06 08 00 07 07 09 00 08 08 10 00 09 09 FF 00
  811 * 50	 02 00 23 81 40 00 FF 0A 11 00 00 00 12 00 01 01 13 00 02 02 14 00 03 03 15 00 04 04 11 00 05 05
	 12 00 06 06 13 00 07 07 14 00 08 08 15 00 09 09 FF 00
  812 * 18	 02 00 24 81 01 00 FF 02 21 00 00 21 22 00 22 27 23 00
  813 * 18	 02 00 25 81 01 00 FF 02 16 00 00 21 17 00 22 27 18 00
  814 * 14	 02 00 26 81 0C 00 FF 01 01 80 11 11 24 00
  815 * 50	 02 00 27 81 40 00 FF 0A 24 00 00 00 26 00 01 01 26 00 02 02 24 00 03 03 24 00 04 04 24 00 05 05
	 26 00 06 06 26 00 07 07 24 00 08 08 24 00 09 09 FF 00
  816 * 7	 00 00 01 01 30 12 FD
  817 * 10	 03 00 01 30 01 FF 25 00 27 00
  818 * 7	 03 00 81 1B 00 27 00
  819 * 7	 03 00 81 1A 00 27 00
  820 * 7	 00 00 01 01 1B 12 FD
  821 * 7	 00 00 01 01 1A 12 FD
  822 * 21	 04 00 1F 01 "1Plan X (Diesel)" 00
  823 * 60	 00 00 16 01 31 00 0D 2F 03 19 04 32 06 0F 05 00 08 01 09 6E 00 0B F2 00 0D 0A 0E 36 4C 00 00 13
	 00 14 49 15 00 16 56 24 00 17 09 19 10 1B 00 00 1C 00 1D 00 00 00 00 21 00 28 01 00
  824 * 6	 01 00 01 FF 08 00
  825 ./dutchtrainsw.png 2 1048 01 23 8 -3 -11
  826 ./dutchtrainsw.png 18 1048 01 17 22 -11 -10
  827 ./dutchtrainsw.png 50 1048 01 12 32 -16 -7
  828 ./dutchtrainsw.png 98 1048 01 17 22 -10 -10
  829 ./dutchtrainsw.png 130 1048 01 23 8 -3 -11
  830 ./dutchtrainsw.png 146 1048 01 17 22 -11 -10
  831 ./dutchtrainsw.png 178 1048 01 12 32 -16 -7
  832 ./dutchtrainsw.png 226 1048 01 17 22 -10 -10
  833 * 9	 02 00 01 01 01 00 00 00 00
  834 * 6	 01 00 01 FF 08 00
  835 ./dutchtrainsw.png 290 1048 01 23 8 -3 -11
  836 ./dutchtrainsw.png 306 1048 01 17 21 -10 -10
  837 ./dutchtrainsw.png 338 1048 01 12 32 -16 -7
  838 ./dutchtrainsw.png 386 1048 01 17 19 -10 -12
  839 ./dutchtrainsw.png 418 1048 01 23 8 -3 -11
  840 ./dutchtrainsw.png 434 1048 01 17 19 -7 -12
  841 ./dutchtrainsw.png 466 1048 01 12 31 -15 -7
  842 ./dutchtrainsw.png 514 1048 01 17 21 -9 -10
  843 * 9	 02 00 02 01 01 00 00 00 00
  844 * 6	 01 00 01 FF 08 00
  845 ./dutchtrainsw.png 578 1048 01 23 8 -3 -11
  846 ./dutchtrainsw.png 594 1048 01 17 19 -7 -12
  847 ./dutchtrainsw.png 626 1048 01 12 31 -15 -7
  848 ./dutchtrainsw.png 674 1048 01 17 21 -9 -10
  849 ./dutchtrainsw.png 706 1048 01 23 8 -3 -11
  850 ./dutchtrainsw.png 722 1048 01 17 21 -10 -10
  851 ./dutchtrainsw.png 754 1048 01 12 32 -16 -7
  852 ./dutchtrainsw.png 2 1096 01 17 19 -10 -12
  853 * 9	 02 00 03 01 01 00 00 00 00
  854 * 6	 01 00 01 FF 08 00
  855 ./dutchtrainsw.png 66 1096 01 23 8 -3 -11
  856 ./dutchtrainsw.png 82 1096 01 17 22 -11 -10
  857 ./dutchtrainsw.png 114 1096 01 12 32 -16 -7
  858 ./dutchtrainsw.png 162 1096 01 17 22 -9 -10
  859 ./dutchtrainsw.png 194 1096 01 23 8 -3 -11
  860 ./dutchtrainsw.png 210 1096 01 17 22 -11 -10
  861 ./dutchtrainsw.png 242 1096 01 12 32 -16 -7
  862 ./dutchtrainsw.png 290 1096 01 17 22 -10 -11
  863 * 9	 02 00 04 01 01 00 00 00 00
  864 * 6	 01 00 01 FF 08 00
  865 ./dutchtrainsw.png 354 1096 01 23 8 -3 -11
  866 ./dutchtrainsw.png 370 1096 01 17 21 -10 -10
  867 ./dutchtrainsw.png 402 1096 01 12 32 -16 -7
  868 ./dutchtrainsw.png 450 1096 01 17 19 -10 -12
  869 ./dutchtrainsw.png 482 1096 01 23 8 -3 -11
  870 ./dutchtrainsw.png 498 1096 01 17 19 -7 -12
  871 ./dutchtrainsw.png 530 1096 01 12 31 -15 -7
  872 ./dutchtrainsw.png 578 1096 01 17 21 -9 -10
  873 * 9	 02 00 05 01 01 00 00 00 00
  874 * 6	 01 00 01 FF 08 00
  875 ./dutchtrainsw.png 642 1096 01 23 8 -3 -11
  876 ./dutchtrainsw.png 658 1096 01 17 19 -7 -12
  877 ./dutchtrainsw.png 690 1096 01 12 31 -15 -7
  878 ./dutchtrainsw.png 738 1096 01 17 21 -9 -10
  879 ./dutchtrainsw.png 770 1096 01 23 8 -3 -11
  880 ./dutchtrainsw.png 2 1144 01 17 21 -10 -10
  881 ./dutchtrainsw.png 34 1144 01 12 32 -16 -7
  882 ./dutchtrainsw.png 82 1144 01 17 19 -10 -12
  883 * 9	 02 00 06 01 01 00 00 00 00
  884 * 6	 01 00 01 FF 08 00
  885 ./dutchtrainsw.png 146 1144 01 23 8 -3 -11
  886 ./dutchtrainsw.png 162 1144 01 17 21 -10 -10
  887 ./dutchtrainsw.png 194 1144 01 13 32 -16 -8
  888 ./dutchtrainsw.png 242 1144 01 17 19 -10 -12
  889 ./dutchtrainsw.png 274 1144 01 23 8 -3 -11
  890 ./dutchtrainsw.png 290 1144 01 17 19 -7 -12
  891 ./dutchtrainsw.png 322 1144 01 13 31 -15 -8
  892 ./dutchtrainsw.png 370 1144 01 17 21 -9 -10
  893 * 9	 02 00 07 01 01 00 00 00 00
  894 * 6	 01 00 01 FF 08 00
  895 ./dutchtrainsw.png 434 1144 01 23 8 -3 -11
  896 ./dutchtrainsw.png 450 1144 01 17 19 -7 -12
  897 ./dutchtrainsw.png 482 1144 01 13 31 -15 -8
  898 ./dutchtrainsw.png 530 1144 01 17 21 -9 -10
  899 ./dutchtrainsw.png 562 1144 01 23 8 -3 -11
  900 ./dutchtrainsw.png 578 1144 01 17 21 -10 -10
  901 ./dutchtrainsw.png 610 1144 01 13 32 -16 -8
  902 ./dutchtrainsw.png 658 1144 01 17 19 -10 -12
  903 * 9	 02 00 08 01 01 00 00 00 00
  904 * 6	 01 00 01 FF 01 00
  905 ./dutchtrainsw.png 722 1144 01 12 50 -25 -6
  906 * 9	 02 00 09 01 01 00 00 00 00
  907 * 6	 01 00 01 FF 01 00
  908 ./dutchtrainsw.png 18 1192 01 12 50 -25 -6
  909 * 9	 02 00 10 01 01 00 00 00 00
  910 * 6	 01 00 01 FF 01 00
  911 ./dutchtrainsw.png 114 1192 01 13 50 -25 -7
  912 * 9	 02 00 11 01 01 00 00 00 00
  913 * 14	 02 00 12 81 40 00 FF 01 01 00 00 00 FF 00
  914 * 18	 02 00 13 81 40 00 FF 02 02 00 00 00 03 00 01 01 FF 00
  915 * 22	 02 00 14 81 40 00 FF 03 02 00 00 00 03 00 01 01 01 00 02 02 FF 00
  916 * 26	 02 00 25 81 40 00 FF 04 02 00 00 00 03 00 01 01 02 00 02 02 03 00 03 03 FF 00
  917 * 30	 02 00 15 81 40 00 FF 05 02 00 00 00 03 00 01 01 02 00 02 02 03 00 03 03 01 00 04 04 FF 00
  918 * 34	 02 00 16 81 40 00 FF 06 02 00 00 00 03 00 01 01 02 00 02 02 03 00 03 03 02 00 04 04 03 00 05 05
	 FF 00
  919 * 14	 02 00 17 81 40 00 FF 01 04 00 00 00 FF 00
  920 * 18	 02 00 18 81 40 00 FF 02 05 00 00 00 06 00 01 01 FF 00
  921 * 22	 02 00 19 81 40 00 FF 03 05 00 00 00 06 00 01 01 04 00 02 02 FF 00
  922 * 26	 02 00 20 81 40 00 FF 04 05 00 00 00 06 00 01 01 05 00 02 02 06 00 03 03 FF 00
  923 * 30	 02 00 21 81 40 00 FF 05 05 00 00 00 06 00 01 01 05 00 02 02 06 00 03 03 04 00 04 04 FF 00
  924 * 34	 02 00 22 81 40 00 FF 06 05 00 00 00 06 00 01 01 05 00 02 02 06 00 03 03 05 00 04 04 06 00 05 05
	 FF 00
  925 * 14	 02 00 29 81 40 00 FF 01 04 00 00 00 FF 00
  926 * 18	 02 00 30 81 40 00 FF 02 07 00 00 00 08 00 01 01 FF 00
  927 * 22	 02 00 31 81 40 00 FF 03 07 00 00 00 08 00 01 01 04 00 02 02 FF 00
  928 * 26	 02 00 32 81 40 00 FF 04 07 00 00 00 08 00 01 01 07 00 02 02 08 00 03 03 FF 00
  929 * 30	 02 00 33 81 40 00 FF 05 07 00 00 00 08 00 01 01 07 00 02 02 08 00 03 03 04 00 04 04 FF 00
  930 * 34	 02 00 34 81 40 00 FF 06 07 00 00 00 08 00 01 01 07 00 02 02 08 00 03 03 07 00 04 04 08 00 05 05
	 FF 00
  931 * 30	 02 00 23 81 40 10 FF 05 29 00 00 00 30 00 01 01 31 00 02 02 32 00 03 03 33 00 04 04 34 00
  932 * 30	 02 00 24 81 40 10 FF 05 12 00 00 00 13 00 01 01 14 00 02 02 25 00 03 03 15 00 04 04 16 00
  933 * 30	 02 00 26 81 40 10 FF 05 17 00 00 00 18 00 01 01 19 00 02 02 20 00 03 03 21 00 04 04 22 00
  934 * 18	 02 00 27 81 01 00 FF 02 24 00 00 2B 26 00 2C 38 23 00
  935 * 18	 02 00 28 81 01 00 FF 02 09 00 00 2B 10 00 2C 38 11 00
  936 * 7	 00 00 01 01 31 12 FD
  937 * 10	 03 00 01 31 01 FF 28 00 27 00
  938 * 7	 03 00 81 1B 00 27 00
  939 * 7	 03 00 81 1A 00 27 00
  940 * 7	 00 00 01 01 1B 12 FD
  941 * 7	 00 00 01 01 1A 12 FD
  942 * 35	 04 00 1F 01 "2Mat '54 \"Hondekop\" (Electric)" 00
  943 * 60	 00 00 16 01 32 00 54 33 03 19 04 32 06 0F 05 00 08 01 09 8C 00 0B 57 08 0D 2D 0E 3C 4C 00 00 13
	 00 14 3C 15 00 16 34 24 00 17 1E 19 30 1B 00 00 1C 00 1D 00 00 00 00 21 00 28 01 00
  944 * 6	 01 00 01 FF 08 00
  945 ./dutchtrainsw.png 706 1192 01 21 8 -3 -10
  946 ./dutchtrainsw.png 722 1192 01 17 22 -11 -10
  947 ./dutchtrainsw.png 754 1192 01 12 33 -16 -7
  948 ./dutchtrainsw.png 2 1224 01 17 22 -10 -11
  949 ./dutchtrainsw.png 34 1224 01 21 8 -3 -10
  950 ./dutchtrainsw.png 50 1224 01 17 22 -11 -11
  951 ./dutchtrainsw.png 82 1224 01 12 33 -16 -7
  952 ./dutchtrainsw.png 130 1224 01 17 22 -10 -11
  953 * 9	 02 00 01 01 01 00 00 00 00
  954 * 6	 01 00 01 FF 08 00
  955 ./dutchtrainsw.png 194 1224 01 21 8 -3 -10
  956 ./dutchtrainsw.png 210 1224 01 19 22 -11 -12
  957 ./dutchtrainsw.png 242 1224 01 15 33 -16 -10
  958 ./dutchtrainsw.png 290 1224 01 17 22 -10 -11
  959 ./dutchtrainsw.png 322 1224 01 21 8 -3 -10
  960 ./dutchtrainsw.png 338 1224 01 17 22 -11 -11
  961 ./dutchtrainsw.png 370 1224 01 15 33 -16 -10
  962 ./dutchtrainsw.png 418 1224 01 19 24 -10 -13
  963 * 9	 02 00 02 01 01 00 00 00 00
  964 * 6	 01 00 01 FF 08 00
  965 ./dutchtrainsw.png 482 1224 01 21 8 -3 -10
  966 ./dutchtrainsw.png 498 1224 01 17 22 -11 -10
  967 ./dutchtrainsw.png 530 1224 01 12 33 -16 -7
  968 ./dutchtrainsw.png 578 1224 01 16 24 -10 -10
  969 ./dutchtrainsw.png 610 1224 01 21 8 -3 -10
  970 ./dutchtrainsw.png 626 1224 01 16 22 -11 -10
  971 ./dutchtrainsw.png 658 1224 01 12 33 -16 -7
  972 ./dutchtrainsw.png 706 1224 01 17 22 -10 -11
  973 * 9	 02 00 03 01 01 00 00 00 00
  974 * 6	 01 00 01 FF 08 00
  975 ./dutchtrainsw.png 770 1224 01 21 8 -3 -10
  976 ./dutchtrainsw.png 2 1256 01 17 22 -11 -10
  977 ./dutchtrainsw.png 34 1256 01 15 33 -16 -10
  978 ./dutchtrainsw.png 82 1256 01 19 24 -10 -13
  979 ./dutchtrainsw.png 114 1256 01 21 8 -3 -10
  980 ./dutchtrainsw.png 130 1256 01 19 22 -11 -13
  981 ./dutchtrainsw.png 162 1256 01 15 33 -16 -10
  982 ./dutchtrainsw.png 210 1256 01 17 22 -10 -11
  983 * 9	 02 00 04 01 01 00 00 00 00
  984 * 6	 01 00 01 FF 08 00
  985 ./dutchtrainsw.png 274 1256 01 21 8 -3 -10
  986 ./dutchtrainsw.png 290 1256 01 17 22 -11 -10
  987 ./dutchtrainsw.png 322 1256 01 12 33 -16 -7
  988 ./dutchtrainsw.png 370 1256 01 17 22 -10 -11
  989 ./dutchtrainsw.png 402 1256 01 21 8 -3 -10
  990 ./dutchtrainsw.png 418 1256 01 17 22 -11 -10
  991 ./dutchtrainsw.png 450 1256 01 12 33 -16 -7
  992 ./dutchtrainsw.png 498 1256 01 17 22 -10 -11
  993 * 9	 02 00 05 01 01 00 00 00 00
  994 * 6	 01 00 01 FF 08 00
  995 ./dutchtrainsw.png 562 1256 01 21 8 -3 -10
  996 ./dutchtrainsw.png 578 1256 01 19 22 -11 -12
  997 ./dutchtrainsw.png 610 1256 01 15 33 -16 -10
  998 ./dutchtrainsw.png 658 1256 01 17 22 -10 -11
  999 ./dutchtrainsw.png 690 1256 01 21 8 -3 -10
 1000 ./dutchtrainsw.png 706 1256 01 17 22 -11 -10
 1001 ./dutchtrainsw.png 738 1256 01 15 33 -16 -10
 1002 ./dutchtrainsw.png 2 1288 01 19 22 -10 -13
 1003 * 9	 02 00 06 01 01 00 00 00 00
 1004 * 6	 01 00 01 FF 08 00
 1005 ./dutchtrainsw.png 66 1288 01 21 8 -3 -10
 1006 ./dutchtrainsw.png 82 1288 01 17 22 -11 -10
 1007 ./dutchtrainsw.png 114 1288 01 12 33 -16 -7
 1008 ./dutchtrainsw.png 162 1288 01 16 22 -10 -10
 1009 ./dutchtrainsw.png 194 1288 01 21 8 -3 -10
 1010 ./dutchtrainsw.png 210 1288 01 16 22 -11 -9
 1011 ./dutchtrainsw.png 242 1288 01 12 33 -16 -7
 1012 ./dutchtrainsw.png 290 1288 01 17 22 -10 -11
 1013 * 9	 02 00 07 01 01 00 00 00 00
 1014 * 6	 01 00 01 FF 08 00
 1015 ./dutchtrainsw.png 354 1288 01 21 8 -3 -10
 1016 ./dutchtrainsw.png 370 1288 01 17 22 -11 -10
 1017 ./dutchtrainsw.png 402 1288 01 15 33 -16 -10
 1018 ./dutchtrainsw.png 450 1288 01 19 22 -10 -13
 1019 ./dutchtrainsw.png 482 1288 01 21 8 -3 -10
 1020 ./dutchtrainsw.png 498 1288 01 19 22 -11 -12
 1021 ./dutchtrainsw.png 530 1288 01 15 33 -16 -10
 1022 ./dutchtrainsw.png 578 1288 01 17 22 -10 -11
 1023 * 9	 02 00 08 01 01 00 00 00 00
 1024 * 6	 01 00 01 FF 08 00
 1025 ./dutchtrainsw.png 642 1288 01 21 8 -3 -10
 1026 ./dutchtrainsw.png 658 1288 01 17 22 -11 -10
 1027 ./dutchtrainsw.png 690 1288 01 12 33 -16 -7
 1028 ./dutchtrainsw.png 738 1288 01 17 22 -10 -11
 1029 ./dutchtrainsw.png 770 1288 01 21 8 -3 -10
 1030 ./dutchtrainsw.png 2 1320 01 17 22 -11 -10
 1031 ./dutchtrainsw.png 34 1320 01 12 33 -16 -7
 1032 ./dutchtrainsw.png 82 1320 01 17 22 -10 -11
 1033 * 9	 02 00 09 01 01 00 00 00 00
 1034 * 6	 01 00 01 FF 08 00
 1035 ./dutchtrainsw.png 146 1320 01 21 8 -3 -10
 1036 ./dutchtrainsw.png 162 1320 01 19 22 -11 -12
 1037 ./dutchtrainsw.png 194 1320 01 15 33 -16 -10
 1038 ./dutchtrainsw.png 242 1320 01 17 22 -10 -11
 1039 ./dutchtrainsw.png 274 1320 01 21 8 -3 -10
 1040 ./dutchtrainsw.png 290 1320 01 17 22 -11 -10
 1041 ./dutchtrainsw.png 322 1320 01 15 33 -16 -10
 1042 ./dutchtrainsw.png 370 1320 01 19 22 -10 -13
 1043 * 9	 02 00 10 01 01 00 00 00 00
 1044 * 6	 01 00 01 FF 08 00
 1045 ./dutchtrainsw.png 434 1320 01 21 8 -3 -10
 1046 ./dutchtrainsw.png 450 1320 01 17 22 -11 -10
 1047 ./dutchtrainsw.png 482 1320 01 12 33 -16 -7
 1048 ./dutchtrainsw.png 530 1320 01 16 22 -10 -10
 1049 ./dutchtrainsw.png 562 1320 01 21 8 -3 -10
 1050 ./dutchtrainsw.png 578 1320 01 16 22 -11 -9
 1051 ./dutchtrainsw.png 610 1320 01 12 33 -16 -7
 1052 ./dutchtrainsw.png 658 1320 01 17 22 -10 -11
 1053 * 9	 02 00 11 01 01 00 00 00 00
 1054 * 6	 01 00 01 FF 08 00
 1055 ./dutchtrainsw.png 722 1320 01 21 8 -3 -10
 1056 ./dutchtrainsw.png 738 1320 01 17 22 -11 -10
 1057 ./dutchtrainsw.png 2 1352 01 15 33 -16 -10
 1058 ./dutchtrainsw.png 50 1352 01 19 22 -10 -13
 1059 ./dutchtrainsw.png 82 1352 01 21 8 -3 -10
 1060 ./dutchtrainsw.png 98 1352 01 19 22 -11 -12
 1061 ./dutchtrainsw.png 130 1352 01 15 33 -16 -10
 1062 ./dutchtrainsw.png 178 1352 01 17 22 -10 -11
 1063 * 9	 02 00 12 01 01 00 00 00 00
 1064 * 6	 01 00 01 FF 08 00
 1065 ./dutchtrainsw.png 242 1352 01 21 8 -3 -10
 1066 ./dutchtrainsw.png 258 1352 01 17 22 -11 -10
 1067 ./dutchtrainsw.png 290 1352 01 12 33 -16 -7
 1068 ./dutchtrainsw.png 338 1352 01 17 22 -10 -11
 1069 ./dutchtrainsw.png 370 1352 01 21 8 -3 -10
 1070 ./dutchtrainsw.png 386 1352 01 17 22 -11 -10
 1071 ./dutchtrainsw.png 418 1352 01 12 33 -16 -7
 1072 ./dutchtrainsw.png 466 1352 01 17 22 -10 -11
 1073 * 9	 02 00 13 01 01 00 00 00 00
 1074 * 6	 01 00 01 FF 08 00
 1075 ./dutchtrainsw.png 530 1352 01 21 8 -3 -10
 1076 ./dutchtrainsw.png 546 1352 01 19 22 -11 -12
 1077 ./dutchtrainsw.png 578 1352 01 15 33 -16 -10
 1078 ./dutchtrainsw.png 626 1352 01 17 22 -10 -11
 1079 ./dutchtrainsw.png 658 1352 01 21 8 -3 -10
 1080 ./dutchtrainsw.png 674 1352 01 17 22 -11 -10
 1081 ./dutchtrainsw.png 706 1352 01 15 33 -16 -10
 1082 ./dutchtrainsw.png 754 1352 01 19 22 -10 -13
 1083 * 9	 02 00 14 01 01 00 00 00 00
 1084 * 6	 01 00 01 FF 08 00
 1085 ./dutchtrainsw.png 18 1384 01 21 8 -3 -10
 1086 ./dutchtrainsw.png 34 1384 01 17 22 -11 -10
 1087 ./dutchtrainsw.png 66 1384 01 15 33 -16 -10
 1088 ./dutchtrainsw.png 114 1384 01 19 22 -10 -13
 1089 ./dutchtrainsw.png 146 1384 01 21 8 -3 -10
 1090 ./dutchtrainsw.png 162 1384 01 19 22 -11 -12
 1091 ./dutchtrainsw.png 194 1384 01 15 33 -16 -10
 1092 ./dutchtrainsw.png 242 1384 01 17 22 -10 -11
 1093 * 9	 02 00 15 01 01 00 00 00 00
 1094 * 6	 01 00 01 FF 01 00
 1095 ./dutchtrainsw.png 306 1384 01 15 49 -24 -9
 1096 * 9	 02 00 16 01 01 00 00 00 00
 1097 * 6	 01 00 01 FF 01 00
 1098 ./dutchtrainsw.png 402 1384 01 15 49 -24 -9
 1099 * 9	 02 00 17 01 01 00 00 00 00
 1100 * 6	 01 00 01 FF 01 00
 1101 ./dutchtrainsw.png 498 1384 01 15 49 -24 -9
 1102 * 9	 02 00 18 01 01 00 00 00 00
 1103 * 6	 01 00 01 FF 01 00
 1104 ./dutchtrainsw.png 594 1384 01 15 49 -24 -9
 1105 * 9	 02 00 19 01 01 00 00 00 00
 1106 * 14	 02 00 20 81 40 00 FF 01 02 00 00 00 FF 00
 1107 * 18	 02 00 21 81 40 00 FF 02 02 00 00 00 03 00 01 01 FF 00
 1108 * 22	 02 00 22 81 40 00 FF 03 02 00 00 00 03 00 01 01 02 00 02 02 FF 00
 1109 * 26	 02 00 23 81 40 00 FF 04 02 00 00 00 03 00 01 01 02 00 02 02 03 00 03 03 FF 00
 1110 * 26	 02 00 24 81 40 00 FF 04 02 00 00 00 01 00 01 01 01 00 02 02 04 00 03 03 FF 00
 1111 * 11	 02 00 25 83 00 00 02 23 00 24 00
 1112 * 30	 02 00 26 81 40 00 FF 05 25 00 00 00 25 00 01 01 25 00 02 02 25 00 03 03 02 00 04 04 FF 00
 1113 * 34	 02 00 27 81 40 00 FF 06 25 00 00 00 25 00 01 01 25 00 02 02 25 00 03 03 02 00 04 04 03 00 05 05
	 FF 00
 1114 * 38	 02 00 28 81 40 00 FF 07 25 00 00 00 25 00 01 01 25 00 02 02 25 00 03 03 02 00 04 04 03 00 05 05
	 02 00 06 06 FF 00
 1115 * 42	 02 00 29 81 40 00 FF 08 25 00 00 00 25 00 01 01 25 00 02 02 25 00 03 03 02 00 04 04 03 00 05 05
	 02 00 06 06 03 00 07 07 FF 00
 1116 * 42	 02 00 30 81 40 00 FF 08 25 00 00 00 25 00 01 01 25 00 02 02 25 00 03 03 02 00 04 04 01 00 05 05
	 01 00 06 06 04 00 07 07 FF 00
 1117 * 11	 02 00 32 83 00 00 02 29 00 30 00
 1118 * 46	 02 00 33 81 40 00 FF 09 32 00 00 00 32 00 01 01 32 00 02 02 32 00 03 03 32 00 04 04 32 00 05 05
	 32 00 06 06 32 00 07 07 02 00 08 08 FF 00
 1119 * 50	 02 00 34 81 40 00 FF 0A 32 00 00 00 32 00 01 01 32 00 02 02 32 00 03 03 32 00 04 04 32 00 05 05
	 32 00 06 06 32 00 07 07 02 00 08 08 03 00 09 09 FF 00
 1120 * 54	 02 00 35 81 40 00 FF 0B 32 00 00 00 32 00 01 01 32 00 02 02 32 00 03 03 32 00 04 04 32 00 05 05
	 32 00 06 06 32 00 07 07 02 00 08 08 03 00 09 09 02 00 0A 0A FF 00
 1121 * 58	 02 00 36 81 40 00 FF 0C 32 00 00 00 32 00 01 01 32 00 02 02 32 00 03 03 32 00 04 04 32 00 05 05
	 32 00 06 06 32 00 07 07 02 00 08 08 03 00 09 09 02 00 0A 0A 03 00 0B 0B FF 00
 1122 * 58	 02 00 37 81 40 00 FF 0C 32 00 00 00 32 00 01 01 32 00 02 02 32 00 03 03 32 00 04 04 32 00 05 05
	 32 00 06 06 32 00 07 07 02 00 08 08 01 00 09 09 01 00 0A 0A 04 00 0B 0B FF 00
 1123 * 11	 02 00 38 83 00 00 02 36 00 37 00
 1124 * 58	 02 00 39 81 40 10 FF 0C 20 00 00 00 21 00 01 01 22 00 02 02 25 00 03 03 26 00 04 04 27 00 05 05
	 28 00 06 06 32 00 07 07 33 00 08 08 34 00 09 09 35 00 0A 0A 38 00 0B 0B FF 00
 1125 * 14	 02 00 40 81 40 00 FF 01 06 00 00 00 FF 00
 1126 * 18	 02 00 41 81 40 00 FF 02 06 00 00 00 07 00 01 01 FF 00
 1127 * 22	 02 00 42 81 40 00 FF 03 06 00 00 00 07 00 01 01 06 00 02 02 FF 00
 1128 * 26	 02 00 43 81 40 00 FF 04 06 00 00 00 07 00 01 01 06 00 02 02 07 00 03 03 FF 00
 1129 * 26	 02 00 44 81 40 00 FF 04 06 00 00 00 05 00 01 01 05 00 02 02 08 00 03 03 FF 00
 1130 * 11	 02 00 45 83 00 00 02 43 00 44 00
 1131 * 30	 02 00 46 81 40 00 FF 05 45 00 00 00 45 00 01 01 45 00 02 02 45 00 03 03 06 00 04 04 FF 00
 1132 * 34	 02 00 47 81 40 00 FF 06 45 00 00 00 45 00 01 01 45 00 02 02 45 00 03 03 06 00 04 04 07 00 05 05
	 FF 00
 1133 * 38	 02 00 48 81 40 00 FF 07 45 00 00 00 45 00 01 01 45 00 02 02 45 00 03 03 06 00 04 04 07 00 05 05
	 06 00 06 06 FF 00
 1134 * 42	 02 00 49 81 40 00 FF 08 45 00 00 00 45 00 01 01 45 00 02 02 45 00 03 03 06 00 04 04 07 00 05 05
	 06 00 06 06 07 00 07 07 FF 00
 1135 * 42	 02 00 50 81 40 00 FF 08 45 00 00 00 45 00 01 01 45 00 02 02 45 00 03 03 06 00 04 04 05 00 05 05
	 05 00 06 06 08 00 07 07 FF 00
 1136 * 11	 02 00 52 83 00 00 02 49 00 50 00
 1137 * 46	 02 00 53 81 40 00 FF 09 52 00 00 00 52 00 01 01 52 00 02 02 52 00 03 03 52 00 04 04 52 00 05 05
	 52 00 06 06 52 00 07 07 06 00 08 08 FF 00
 1138 * 50	 02 00 54 81 40 00 FF 0A 52 00 00 00 52 00 01 01 52 00 02 02 52 00 03 03 52 00 04 04 52 00 05 05
	 52 00 06 06 52 00 07 07 06 00 08 08 07 00 09 09 FF 00
 1139 * 54	 02 00 55 81 40 00 FF 0B 52 00 00 00 52 00 01 01 52 00 02 02 52 00 03 03 52 00 04 04 52 00 05 05
	 52 00 06 06 52 00 07 07 06 00 08 08 07 00 09 09 06 00 0A 0A FF 00
 1140 * 58	 02 00 56 81 40 00 FF 0C 52 00 00 00 52 00 01 01 52 00 02 02 52 00 03 03 52 00 04 04 52 00 05 05
	 52 00 06 06 52 00 07 07 06 00 08 08 07 00 09 09 06 00 0A 0A 07 00 0B 0B FF 00
 1141 * 58	 02 00 57 81 40 00 FF 0C 52 00 00 00 52 00 01 01 52 00 02 02 52 00 03 03 52 00 04 04 52 00 05 05
	 52 00 06 06 52 00 07 07 06 00 08 08 05 00 09 09 05 00 0A 0A 08 00 0B 0B FF 00
 1142 * 11	 02 00 58 83 00 00 02 56 00 57 00
 1143 * 58	 02 00 59 81 40 10 FF 0C 40 00 00 00 41 00 01 01 42 00 02 02 45 00 03 03 46 00 04 04 47 00 05 05
	 48 00 06 06 52 00 07 07 53 00 08 08 54 00 09 09 55 00 0A 0A 58 00 0B 0B FF 00
 1144 * 14	 02 00 60 81 40 00 FF 01 10 00 00 00 FF 00
 1145 * 14	 02 00 60 81 40 00 FF 01 10 00 00 00 FF 00
 1146 * 18	 02 00 61 81 40 00 FF 02 10 00 00 00 11 00 01 01 FF 00
 1147 * 22	 02 00 62 81 40 00 FF 03 10 00 00 00 11 00 01 01 10 00 02 02 FF 00
 1148 * 26	 02 00 63 81 40 00 FF 04 10 00 00 00 11 00 01 01 10 00 02 02 11 00 03 03 FF 00
 1149 * 26	 02 00 64 81 40 00 FF 04 10 00 00 00 09 00 01 01 09 00 02 02 12 00 03 03 FF 00
 1150 * 11	 02 00 65 83 00 00 02 63 00 64 00
 1151 * 30	 02 00 66 81 40 00 FF 05 65 00 00 00 65 00 01 01 65 00 02 02 65 00 03 03 10 00 04 04 FF 00
 1152 * 34	 02 00 67 81 40 00 FF 06 65 00 00 00 65 00 01 01 65 00 02 02 65 00 03 03 10 00 04 04 11 00 05 05
	 FF 00
 1153 * 38	 02 00 68 81 40 00 FF 07 65 00 00 00 65 00 01 01 65 00 02 02 65 00 03 03 10 00 04 04 11 00 05 05
	 10 00 06 06 FF 00
 1154 * 42	 02 00 69 81 40 00 FF 08 65 00 00 00 65 00 01 01 65 00 02 02 65 00 03 03 10 00 04 04 11 00 05 05
	 10 00 06 06 11 00 07 07 FF 00
 1155 * 42	 02 00 70 81 40 00 FF 08 65 00 00 00 65 00 01 01 65 00 02 02 65 00 03 03 10 00 04 04 09 00 05 05
	 09 00 06 06 12 00 07 07 FF 00
 1156 * 11	 02 00 72 83 00 00 02 69 00 70 00
 1157 * 46	 02 00 73 81 40 00 FF 09 72 00 00 00 72 00 01 01 72 00 02 02 72 00 03 03 72 00 04 04 72 00 05 05
	 72 00 06 06 72 00 07 07 10 00 08 08 FF 00
 1158 * 50	 02 00 74 81 40 00 FF 0A 72 00 00 00 72 00 01 01 72 00 02 02 72 00 03 03 72 00 04 04 72 00 05 05
	 72 00 06 06 72 00 07 07 10 00 08 08 11 00 09 09 FF 00
 1159 * 54	 02 00 75 81 40 00 FF 0B 72 00 00 00 72 00 01 01 72 00 02 02 72 00 03 03 72 00 04 04 72 00 05 05
	 72 00 06 06 72 00 07 07 10 00 08 08 11 00 09 09 10 00 0A 0A FF 00
 1160 * 58	 02 00 76 81 40 00 FF 0C 72 00 00 00 72 00 01 01 72 00 02 02 72 00 03 03 72 00 04 04 72 00 05 05
	 72 00 06 06 72 00 07 07 10 00 08 08 11 00 09 09 10 00 0A 0A 10 00 0B 0B FF 00
 1161 * 58	 02 00 77 81 40 00 FF 0C 72 00 00 00 72 00 01 01 72 00 02 02 72 00 03 03 72 00 04 04 72 00 05 05
	 72 00 06 06 72 00 07 07 10 00 08 08 09 00 09 09 09 00 0A 0A 12 00 0B 0B FF 00
 1162 * 11	 02 00 78 83 00 00 02 76 00 77 00
 1163 * 58	 02 00 79 81 40 10 FF 0C 60 00 00 00 61 00 01 01 62 00 02 02 65 00 03 03 66 00 04 04 67 00 05 05
	 68 00 06 06 72 00 07 07 73 00 08 08 74 00 09 09 75 00 0A 0A 78 00 0B 0B FF 00
 1164 * 26	 02 00 84 81 40 00 FF 04 14 00 00 00 13 00 01 01 13 00 02 02 15 00 03 03 FF 00
 1165 * 30	 02 00 85 81 40 00 FF 05 84 00 00 00 84 00 01 01 84 00 02 02 84 00 03 03 10 00 04 04 FF 00
 1166 * 34	 02 00 86 81 40 00 FF 06 84 00 00 00 84 00 01 01 84 00 02 02 84 00 03 03 10 00 04 04 11 00 05 05
	 FF 00
 1167 * 38	 02 00 87 81 40 00 FF 07 84 00 00 00 84 00 01 01 84 00 02 02 84 00 03 03 10 00 04 04 11 00 05 05
	 10 00 06 06 FF 00
 1168 * 42	 02 00 88 81 40 00 FF 08 84 00 00 00 84 00 01 01 84 00 02 02 84 00 03 03 14 00 04 04 13 00 05 05
	 13 00 06 06 15 00 07 07 FF 00
 1169 * 46	 02 00 89 81 40 00 FF 09 88 00 00 00 88 00 01 01 88 00 02 02 88 00 03 03 88 00 04 04 88 00 05 05
	 88 00 06 06 88 00 07 07 10 00 08 08 FF 00
 1170 * 50	 02 00 90 81 40 00 FF 0A 88 00 00 00 88 00 01 01 88 00 02 02 88 00 03 03 88 00 04 04 88 00 05 05
	 88 00 06 06 88 00 07 07 10 00 08 08 11 00 09 09 FF 00
 1171 * 54	 02 00 91 81 40 00 FF 0B 88 00 00 00 88 00 01 01 88 00 02 02 88 00 03 03 88 00 04 04 88 00 05 05
	 88 00 06 06 88 00 07 07 10 00 08 08 11 00 09 09 10 00 0A 0A FF 00
 1172 * 58	 02 00 92 81 40 00 FF 0C 88 00 00 00 88 00 01 01 88 00 02 02 88 00 03 03 88 00 04 04 88 00 05 05
	 88 00 06 06 88 00 07 07 14 00 08 08 13 00 09 09 13 00 0A 0A 15 00 0B 0B FF 00
 1173 * 58	 02 00 80 81 40 10 FF 0C 60 00 00 00 61 00 01 01 62 00 02 02 84 00 03 03 85 00 04 04 86 00 05 05
	 87 00 06 06 88 00 07 07 89 00 08 08 90 00 09 09 91 00 0A 0A 92 00 0B 0B FF 00
 1174 * 11	 02 00 81 83 00 00 02 79 00 80 00
 1175 * 18	 02 00 82 81 01 00 FF 02 39 00 00 29 59 00 2A 33 81 00
 1176 * 18	 02 00 83 81 01 00 FF 02 16 00 00 29 17 00 2A 33 19 00
 1177 * 7	 00 00 01 01 32 12 FD
 1178 * 10	 03 00 01 32 01 FF 83 00 82 00
 1179 * 7	 03 00 81 1B 00 82 00
 1180 * 7	 03 00 81 1A 00 82 00
 1181 * 7	 00 00 01 01 1B 12 FD
 1182 * 7	 00 00 01 01 1A 12 FD
 1183 * 31	 04 00 1F 01 "3NS/SBB DE-IV TEE (Diesel)" 00
 1184 * 60	 00 00 16 01 33 00 C1 34 03 19 04 32 06 0F 05 00 08 01 09 8C 00 0B B3 07 0D 29 0E 36 4C 00 00 13
	 00 14 24 15 00 16 38 24 00 17 1D 19 10 1B 00 00 1C 00 1D 00 00 00 00 21 00 28 01 00
 1185 * 6	 01 00 01 FF 08 00
 1186 ./dutchtrainsw.png 354 1432 01 22 8 -3 -10
 1187 ./dutchtrainsw.png 370 1432 01 16 23 -11 -9
 1188 ./dutchtrainsw.png 402 1432 01 11 33 -16 -7
 1189 ./dutchtrainsw.png 450 1432 01 17 22 -10 -11
 1190 ./dutchtrainsw.png 482 1432 01 23 8 -3 -11
 1191 ./dutchtrainsw.png 498 1432 01 17 22 -11 -10
 1192 ./dutchtrainsw.png 530 1432 01 11 32 -16 -7
 1193 ./dutchtrainsw.png 578 1432 01 16 23 -11 -10
 1194 * 9	 02 00 01 01 01 00 00 00 00
 1195 * 6	 01 00 01 FF 08 00
 1196 ./dutchtrainsw.png 642 1432 01 23 8 -3 -11
 1197 ./dutchtrainsw.png 658 1432 01 17 22 -11 -10
 1198 ./dutchtrainsw.png 690 1432 01 11 33 -16 -7
 1199 ./dutchtrainsw.png 738 1432 01 17 22 -10 -11
 1200 ./dutchtrainsw.png 770 1432 01 23 8 -3 -11
 1201 ./dutchtrainsw.png 2 1480 01 21 22 -11 -14
 1202 ./dutchtrainsw.png 34 1480 01 11 33 -16 -7
 1203 ./dutchtrainsw.png 82 1480 01 17 22 -10 -11
 1204 * 9	 02 00 02 01 01 00 00 00 00
 1205 * 6	 01 00 01 FF 08 00
 1206 ./dutchtrainsw.png 146 1480 01 23 8 -3 -11
 1207 ./dutchtrainsw.png 162 1480 01 17 22 -11 -10
 1208 ./dutchtrainsw.png 194 1480 01 11 32 -16 -7
 1209 ./dutchtrainsw.png 242 1480 01 16 23 -11 -10
 1210 ./dutchtrainsw.png 274 1480 01 22 8 -3 -10
 1211 ./dutchtrainsw.png 290 1480 01 16 23 -11 -9
 1212 ./dutchtrainsw.png 322 1480 01 11 33 -15 -7
 1213 ./dutchtrainsw.png 370 1480 01 17 22 -10 -11
 1214 * 9	 02 00 03 01 01 00 00 00 00
 1215 * 30	 02 00 04 81 40 00 FF 05 02 00 01 02 03 00 03 03 02 00 05 06 03 00 07 07 FF 00 08 FF 01 00
 1216 * 6	 01 00 01 FF 01 00
 1217 ./dutchtrainsw.png 450 1480 01 11 50 -25 -5
 1218 * 9	 02 00 05 01 01 00 00 00 00
 1219 * 7	 00 00 01 01 33 12 FD
 1220 * 10	 03 00 01 33 01 FF 05 00 04 00
 1221 * 7	 03 00 81 1B 00 04 00
 1222 * 7	 03 00 81 1A 00 04 00
 1223 * 7	 00 00 01 01 1B 12 FD
 1224 * 7	 00 00 01 01 1A 12 FD
 1225 * 35	 04 00 1F 01 "4Plan U \"Diesel Drie\" (Diesel)" 00
 1226 * 60	 00 00 16 01 34 00 08 39 03 19 04 32 06 0F 05 00 08 01 09 82 00 0B DB 03 0D 17 0E 36 4C 00 00 13
	 00 14 40 15 00 16 2D 24 00 17 11 19 10 1B 00 00 1C 00 1D 00 00 00 00 21 00 28 01 00
 1227 * 6	 01 00 01 FF 08 00
 1228 ./dutchtrainsw.png 674 1480 01 21 8 -3 -9
 1229 ./dutchtrainsw.png 690 1480 01 16 22 -13 -8
 1230 ./dutchtrainsw.png 722 1480 01 12 33 -16 -7
 1231 ./dutchtrainsw.png 770 1480 01 17 22 -10 -11
 1232 ./dutchtrainsw.png 2 1528 01 21 8 -3 -11
 1233 ./dutchtrainsw.png 18 1528 01 17 22 -11 -10
 1234 ./dutchtrainsw.png 50 1528 01 12 33 -16 -7
 1235 ./dutchtrainsw.png 98 1528 01 16 22 -10 -10
 1236 * 9	 02 00 01 01 01 00 00 00 00
 1237 * 6	 01 00 01 FF 08 00
 1238 ./dutchtrainsw.png 162 1528 01 21 8 -3 -10
 1239 ./dutchtrainsw.png 178 1528 01 17 22 -11 -10
 1240 ./dutchtrainsw.png 210 1528 01 12 33 -16 -7
 1241 ./dutchtrainsw.png 258 1528 01 17 22 -10 -11
 1242 ./dutchtrainsw.png 290 1528 01 21 8 -3 -10
 1243 ./dutchtrainsw.png 306 1528 01 17 22 -11 -10
 1244 ./dutchtrainsw.png 338 1528 01 12 33 -16 -7
 1245 ./dutchtrainsw.png 386 1528 01 17 22 -10 -11
[...]
 5064 ./dutchtrainsw.png 34 6440 01 23 8 -3 -11
 5065 ./dutchtrainsw.png 50 6440 01 15 22 -11 -9
 5066 ./dutchtrainsw.png 82 6440 01 12 32 -16 -7
 5067 ./dutchtrainsw.png 130 6440 01 15 22 -10 -9
 5068 * 9	 02 00 1F 01 01 00 00 00 00
 5069 * 23	 02 00 86 80 00 00 08 84 00 85 00 1D 00 1E 00 1F 00 84 00 85 00 1E 00
 5070 * 6	 01 00 01 FF 01 00
 5071 ./dutchtrainsw.png 210 6440 01 12 50 -25 -6
 5072 * 9	 02 00 02 01 01 00 00 00 00
 5073 * 7	 00 00 01 01 5D 12 FD
 5074 * 10	 03 00 01 5D 01 FF 02 00 86 00
 5075 * 16	 04 00 1F 01 "^Coil Wagon" 00
 5076 * 51	 00 00 12 01 5E 00 AD 5C 06 0F 05 00 09 78 00 0B 00 00 0D 00 0E 00 00 00 00 14 28 15 09 16 16 24
	 00 17 8D 1B 00 00 1C 01 1D 20 02 00 00 1E 02 21 00 23 00
 5077 * 6	 01 00 01 FF 08 00
 5078 ./dutchtrainsw.png 370 6440 01 21 8 -3 -11
 5079 ./dutchtrainsw.png 386 6440 01 14 18 -9 -9
 5080 ./dutchtrainsw.png 418 6440 01 12 29 -12 -7
 5081 ./dutchtrainsw.png 466 6440 01 14 18 -9 -9
 5082 ./dutchtrainsw.png 498 6440 01 21 8 -3 -10
 5083 ./dutchtrainsw.png 514 6440 01 14 18 -9 -9
 5084 ./dutchtrainsw.png 546 6440 01 12 29 -17 -7
 5085 ./dutchtrainsw.png 594 6440 01 14 18 -9 -9
 5086 * 9	 02 00 01 01 01 00 00 00 00
 5087 * 6	 01 00 01 FF 08 00
 5088 ./dutchtrainsw.png 658 6440 01 21 8 -3 -11
 5089 ./dutchtrainsw.png 674 6440 01 14 18 -9 -9
 5090 ./dutchtrainsw.png 706 6440 01 12 29 -12 -7
 5091 ./dutchtrainsw.png 754 6440 01 14 18 -9 -9
 5092 ./dutchtrainsw.png 786 6440 01 21 8 -3 -10
 5093 ./dutchtrainsw.png 2 6488 01 14 18 -9 -9
 5094 ./dutchtrainsw.png 34 6488 01 12 29 -17 -7
 5095 ./dutchtrainsw.png 82 6488 01 14 18 -9 -9
 5096 * 9	 02 00 02 01 01 00 00 00 00
 5097 * 6	 01 00 01 FF 01 00
 5098 ./dutchtrainsw.png 146 6488 01 12 50 -25 -6
 5099 * 9	 02 00 03 01 01 00 00 00 00
 5100 * 11	 02 00 04 83 00 00 02 01 00 02 00
 5101 * 14	 02 00 05 81 0C 00 FF 01 01 80 11 11 04 00
 5102 * 7	 00 00 01 01 5E 12 FD
 5103 * 10	 03 00 01 5E 01 FF 03 00 05 00
 5104 * 21	 04 00 1F 01 "_Large Goods Van" 00
 5105 * 49	 00 00 11 01 5F 00 AD 5C 06 0F 05 00 09 A0 00 0B 00 00 0D 00 0E 00 00 00 00 14 28 15 05 16 15 24
	 00 17 A3 1B 00 00 1C 01 1D 20 08 00 08 21 00 23 00
 5106 * 6	 01 00 01 FF 08 00
 5107 ./dutchtrainsw.png 338 6488 01 22 8 -3 -11
 5108 ./dutchtrainsw.png 354 6488 01 15 21 -10 -8
 5109 ./dutchtrainsw.png 386 6488 01 12 31 -15 -7
 5110 ./dutchtrainsw.png 434 6488 01 15 21 -10 -9
 5111 ./dutchtrainsw.png 466 6488 01 22 8 -3 -11
 5112 ./dutchtrainsw.png 482 6488 01 15 21 -10 -8
 5113 ./dutchtrainsw.png 514 6488 01 12 31 -16 -7
 5114 ./dutchtrainsw.png 562 6488 01 15 21 -10 -9
 5115 * 9	 02 00 01 01 01 00 00 00 00
 5116 * 6	 01 00 01 FF 08 00
 5117 ./dutchtrainsw.png 626 6488 01 22 8 -3 -11
 5118 ./dutchtrainsw.png 642 6488 01 15 21 -10 -8
 5119 ./dutchtrainsw.png 674 6488 01 12 31 -15 -7
 5120 ./dutchtrainsw.png 722 6488 01 15 21 -10 -9
 5121 ./dutchtrainsw.png 754 6488 01 22 8 -3 -11
 5122 ./dutchtrainsw.png 770 6488 01 15 21 -10 -8
 5123 ./dutchtrainsw.png 2 6520 01 12 31 -16 -7
 5124 ./dutchtrainsw.png 50 6520 01 15 21 -10 -9
 5125 * 9	 02 00 02 01 01 00 00 00 00
 5126 * 6	 01 00 01 FF 08 00
 5127 ./dutchtrainsw.png 114 6520 01 22 8 -3 -11
 5128 ./dutchtrainsw.png 130 6520 01 15 21 -10 -8
 5129 ./dutchtrainsw.png 162 6520 01 12 31 -15 -7
 5130 ./dutchtrainsw.png 210 6520 01 15 21 -10 -9
 5131 ./dutchtrainsw.png 242 6520 01 22 8 -3 -11
 5132 ./dutchtrainsw.png 258 6520 01 15 21 -10 -8
 5133 ./dutchtrainsw.png 290 6520 01 12 31 -16 -7
 5134 ./dutchtrainsw.png 338 6520 01 15 21 -10 -9
 5135 * 9	 02 00 03 01 01 00 00 00 00
 5136 * 6	 01 00 01 FF 08 00
 5137 ./dutchtrainsw.png 402 6520 01 22 8 -3 -11
 5138 ./dutchtrainsw.png 418 6520 01 15 21 -10 -8
 5139 ./dutchtrainsw.png 450 6520 01 12 31 -15 -7
 5140 ./dutchtrainsw.png 498 6520 01 15 21 -10 -9
 5141 ./dutchtrainsw.png 530 6520 01 22 8 -3 -11
 5142 ./dutchtrainsw.png 546 6520 01 15 21 -10 -8
 5143 ./dutchtrainsw.png 578 6520 01 12 31 -16 -7
 5144 ./dutchtrainsw.png 626 6520 01 15 21 -10 -9
 5145 * 9	 02 00 04 01 01 00 00 00 00
 5146 * 6	 01 00 01 FF 08 00
 5147 ./dutchtrainsw.png 690 6520 01 22 8 -3 -11
 5148 ./dutchtrainsw.png 706 6520 01 15 21 -10 -8
 5149 ./dutchtrainsw.png 738 6520 01 12 31 -15 -7
 5150 ./dutchtrainsw.png 2 6552 01 15 21 -10 -9
 5151 ./dutchtrainsw.png 34 6552 01 22 8 -3 -11
 5152 ./dutchtrainsw.png 50 6552 01 15 21 -10 -8
 5153 ./dutchtrainsw.png 82 6552 01 12 31 -16 -7
 5154 ./dutchtrainsw.png 130 6552 01 15 21 -10 -9
 5155 * 9	 02 00 05 01 01 00 00 00 00
 5156 * 6	 01 00 01 FF 08 00
 5157 ./dutchtrainsw.png 194 6552 01 22 8 -3 -11
 5158 ./dutchtrainsw.png 210 6552 01 15 21 -10 -8
 5159 ./dutchtrainsw.png 242 6552 01 12 31 -15 -7
 5160 ./dutchtrainsw.png 290 6552 01 15 21 -10 -9
 5161 ./dutchtrainsw.png 322 6552 01 22 8 -3 -11
 5162 ./dutchtrainsw.png 338 6552 01 15 21 -10 -8
 5163 ./dutchtrainsw.png 370 6552 01 12 31 -16 -7
 5164 ./dutchtrainsw.png 418 6552 01 15 21 -10 -9
 5165 * 9	 02 00 06 01 01 00 00 00 00
 5166 * 6	 01 00 01 FF 08 00
 5167 ./dutchtrainsw.png 482 6552 01 22 8 -3 -11
 5168 ./dutchtrainsw.png 498 6552 01 15 21 -10 -8
 5169 ./dutchtrainsw.png 530 6552 01 12 31 -15 -7
 5170 ./dutchtrainsw.png 578 6552 01 15 21 -10 -9
 5171 ./dutchtrainsw.png 610 6552 01 22 8 -3 -11
 5172 ./dutchtrainsw.png 626 6552 01 15 21 -10 -8
 5173 ./dutchtrainsw.png 658 6552 01 12 31 -16 -7
 5174 ./dutchtrainsw.png 706 6552 01 15 21 -10 -9
 5175 * 9	 02 00 07 01 01 00 00 00 00
 5176 * 6	 01 00 01 FF 08 00
 5177 ./dutchtrainsw.png 770 6552 01 22 8 -3 -11
 5178 ./dutchtrainsw.png 2 6584 01 15 21 -10 -8
 5179 ./dutchtrainsw.png 34 6584 01 12 31 -15 -7
 5180 ./dutchtrainsw.png 82 6584 01 15 21 -10 -9
 5181 ./dutchtrainsw.png 114 6584 01 22 8 -3 -11
 5182 ./dutchtrainsw.png 130 6584 01 15 21 -10 -8
 5183 ./dutchtrainsw.png 162 6584 01 12 31 -16 -7
 5184 ./dutchtrainsw.png 210 6584 01 15 21 -10 -9
 5185 * 9	 02 00 08 01 01 00 00 00 00
 5186 * 6	 01 00 01 FF 01 00
 5187 ./dutchtrainsw.png 274 6584 01 12 50 -25 -6
 5188 * 9	 02 00 09 01 01 00 00 00 00
 5189 * 23	 02 00 10 80 00 00 08 01 00 02 00 03 00 04 00 05 00 06 00 07 00 08 00
 5190 * 7	 00 00 01 01 5F 12 FD
 5191 * 10	 03 00 01 5F 01 FF 09 00 10 00
 5192 * 17	 04 00 1F 01 "`Stake Wagon" 00
 5193 * 49	 00 00 11 01 60 00 AD 5C 06 0F 05 00 09 78 00 0B 00 00 0D 00 0E 00 00 00 00 14 23 15 07 16 14 24
	 00 17 7F 1B 00 00 1C 01 1D A0 02 00 00 21 02 23 00
 5194 * 6	 01 00 03 FF 08 00
 5195 ./dutchtrainsw.png 450 6584 01 18 8 -3 -10
 5196 ./dutchtrainsw.png 466 6584 01 13 18 -9 -7
 5197 ./dutchtrainsw.png 498 6584 01 11 24 -8 -6
 5198 ./dutchtrainsw.png 530 6584 01 13 18 -9 -8
 5199 ./dutchtrainsw.png 562 6584 01 18 8 -3 -9
 5200 ./dutchtrainsw.png 578 6584 01 13 18 -9 -7
 5201 ./dutchtrainsw.png 610 6584 01 11 24 -16 -6
 5202 ./dutchtrainsw.png 642 6584 01 13 18 -11 -9
 5203 ./dutchtrainsw.png 674 6584 01 18 8 -3 -10
 5204 ./dutchtrainsw.png 690 6584 01 13 18 -9 -7
 5205 ./dutchtrainsw.png 722 6584 01 11 24 -8 -6
 5206 ./dutchtrainsw.png 754 6584 01 13 18 -9 -8
 5207 ./dutchtrainsw.png 786 6584 01 18 8 -3 -9
 5208 ./dutchtrainsw.png 2 6616 01 13 18 -9 -7
 5209 ./dutchtrainsw.png 34 6616 01 11 24 -16 -6
 5210 ./dutchtrainsw.png 66 6616 01 13 18 -11 -9
 5211 ./dutchtrainsw.png 98 6616 01 19 8 -3 -10
 5212 ./dutchtrainsw.png 114 6616 01 13 18 -9 -7
 5213 ./dutchtrainsw.png 146 6616 01 11 24 -8 -6
 5214 ./dutchtrainsw.png 178 6616 01 13 18 -9 -8
 5215 ./dutchtrainsw.png 210 6616 01 19 8 -3 -9
 5216 ./dutchtrainsw.png 226 6616 01 13 18 -9 -7
 5217 ./dutchtrainsw.png 258 6616 01 11 24 -16 -6
 5218 ./dutchtrainsw.png 290 6616 01 13 18 -11 -9
 5219 * 17	 02 00 01 03 03 00 00 01 00 02 00 00 00 01 00 02 00
 5220 * 6	 01 00 03 FF 08 00
 5221 ./dutchtrainsw.png 354 6616 01 20 8 -3 -11
 5222 ./dutchtrainsw.png 370 6616 01 13 18 -9 -7
 5223 ./dutchtrainsw.png 402 6616 01 12 24 -8 -7
 5224 ./dutchtrainsw.png 434 6616 01 13 18 -9 -8
 5225 ./dutchtrainsw.png 466 6616 01 20 8 -3 -10
 5226 ./dutchtrainsw.png 482 6616 01 13 18 -9 -7
 5227 ./dutchtrainsw.png 514 6616 01 12 24 -16 -7
 5228 ./dutchtrainsw.png 546 6616 01 13 18 -11 -9
 5229 ./dutchtrainsw.png 578 6616 01 20 8 -3 -11
 5230 ./dutchtrainsw.png 594 6616 01 13 18 -9 -7
 5231 ./dutchtrainsw.png 626 6616 01 12 24 -8 -7
 5232 ./dutchtrainsw.png 658 6616 01 13 18 -9 -8
 5233 ./dutchtrainsw.png 690 6616 01 20 8 -3 -10
 5234 ./dutchtrainsw.png 706 6616 01 13 18 -9 -7
 5235 ./dutchtrainsw.png 738 6616 01 12 24 -16 -7
 5236 ./dutchtrainsw.png 770 6616 01 13 18 -11 -9
 5237 ./dutchtrainsw.png 2 6648 01 20 8 -3 -11
 5238 ./dutchtrainsw.png 18 6648 01 13 18 -9 -7
 5239 ./dutchtrainsw.png 50 6648 01 12 24 -8 -7
 5240 ./dutchtrainsw.png 82 6648 01 13 18 -9 -8
 5241 ./dutchtrainsw.png 114 6648 01 20 8 -3 -10
 5242 ./dutchtrainsw.png 130 6648 01 13 18 -9 -7
 5243 ./dutchtrainsw.png 162 6648 01 12 24 -16 -7
 5244 ./dutchtrainsw.png 194 6648 01 13 18 -11 -9
 5245 * 17	 02 00 02 03 03 00 00 01 00 02 00 00 00 01 00 02 00
 5246 * 6	 01 00 03 FF 08 00
 5247 ./dutchtrainsw.png 258 6648 01 19 8 -3 -10
 5248 ./dutchtrainsw.png 274 6648 01 13 18 -9 -7
 5249 ./dutchtrainsw.png 306 6648 01 11 24 -8 -6
 5250 ./dutchtrainsw.png 338 6648 01 13 18 -9 -8
 5251 ./dutchtrainsw.png 370 6648 01 19 8 -3 -9
 5252 ./dutchtrainsw.png 386 6648 01 13 18 -9 -7
 5253 ./dutchtrainsw.png 418 6648 01 11 24 -16 -6
 5254 ./dutchtrainsw.png 450 6648 01 13 18 -11 -9
 5255 ./dutchtrainsw.png 482 6648 01 19 8 -3 -10
 5256 ./dutchtrainsw.png 498 6648 01 13 18 -9 -7
 5257 ./dutchtrainsw.png 530 6648 01 11 24 -8 -6
 5258 ./dutchtrainsw.png 562 6648 01 13 18 -9 -8
 5259 ./dutchtrainsw.png 594 6648 01 19 8 -3 -9
 5260 ./dutchtrainsw.png 610 6648 01 13 18 -9 -7
 5261 ./dutchtrainsw.png 642 6648 01 11 24 -16 -6
 5262 ./dutchtrainsw.png 674 6648 01 13 18 -11 -9
 5263 ./dutchtrainsw.png 706 6648 01 19 8 -3 -10
 5264 ./dutchtrainsw.png 722 6648 01 13 18 -9 -7
 5265 ./dutchtrainsw.png 754 6648 01 11 24 -8 -6
 5266 ./dutchtrainsw.png 2 6680 01 13 18 -9 -8
 5267 ./dutchtrainsw.png 34 6680 01 19 8 -3 -9
 5268 ./dutchtrainsw.png 50 6680 01 13 18 -9 -7
 5269 ./dutchtrainsw.png 82 6680 01 11 24 -16 -6
 5270 ./dutchtrainsw.png 114 6680 01 13 18 -11 -9
 5271 * 17	 02 00 03 03 03 00 00 01 00 02 00 00 00 01 00 02 00
 5272 * 6	 01 00 01 FF 01 00
 5273 ./dutchtrainsw.png 178 6680 01 11 50 -25 -5
 5274 * 9	 02 00 04 01 01 00 00 00 00
 5275 * 7	 00 00 01 01 60 12 FD
 5276 * 19	 03 00 01 60 04 05 03 00 07 02 00 09 01 00 FF 04 00 02 00
 5277 * 20	 04 00 1F 01 "aSelfdischarger" 00
 5278 * 49	 00 00 11 01 61 00 4A 47 06 0F 05 00 09 78 00 0B 00 00 0D 00 0E 00 00 00 00 14 23 15 08 16 14 24
	 00 17 7F 1B 00 00 1C 01 1D 02 41 00 00 21 01 23 00
 5279 * 6	 01 00 01 FF 08 00
 5280 ./dutchtrainsw.png 338 6680 01 22 8 -3 -12
 5281 ./dutchtrainsw.png 354 6680 01 15 20 -8 -9
 5282 ./dutchtrainsw.png 386 6680 01 13 28 -12 -8
 5283 ./dutchtrainsw.png 434 6680 01 15 20 -10 -9
 5284 ./dutchtrainsw.png 466 6680 01 22 8 -3 -11
 5285 ./dutchtrainsw.png 482 6680 01 15 20 -10 -8
 5286 ./dutchtrainsw.png 514 6680 01 13 28 -16 -8
 5287 ./dutchtrainsw.png 562 6680 01 15 20 -12 -10
 5288 * 9	 02 00 01 01 01 00 00 00 00
 5289 * 6	 01 00 01 FF 08 00
 5290 ./dutchtrainsw.png 626 6680 01 22 8 -3 -12
 5291 ./dutchtrainsw.png 642 6680 01 15 20 -8 -9
 5292 ./dutchtrainsw.png 674 6680 01 13 28 -12 -8
 5293 ./dutchtrainsw.png 722 6680 01 15 20 -10 -9
 5294 ./dutchtrainsw.png 754 6680 01 22 8 -3 -11
 5295 ./dutchtrainsw.png 770 6680 01 15 20 -10 -8
 5296 ./dutchtrainsw.png 2 6712 01 13 28 -16 -8
 5297 ./dutchtrainsw.png 50 6712 01 15 20 -12 -10
 5298 * 9	 02 00 02 01 01 00 00 00 00
 5299 * 6	 01 00 01 FF 08 00
 5300 ./dutchtrainsw.png 114 6712 01 22 8 -3 -12
 5301 ./dutchtrainsw.png 130 6712 01 15 20 -8 -9
 5302 ./dutchtrainsw.png 162 6712 01 13 28 -12 -8
 5303 ./dutchtrainsw.png 210 6712 01 15 20 -10 -9
 5304 ./dutchtrainsw.png 242 6712 01 22 8 -3 -11
 5305 ./dutchtrainsw.png 258 6712 01 15 20 -10 -8
 5306 ./dutchtrainsw.png 290 6712 01 13 28 -16 -8
 5307 ./dutchtrainsw.png 338 6712 01 15 20 -12 -10
 5308 * 9	 02 00 03 01 01 00 00 00 00
 5309 * 6	 01 00 01 FF 08 00
 5310 ./dutchtrainsw.png 402 6712 01 22 8 -3 -12
 5311 ./dutchtrainsw.png 418 6712 01 15 20 -8 -9
 5312 ./dutchtrainsw.png 450 6712 01 13 28 -12 -8
 5313 ./dutchtrainsw.png 498 6712 01 15 20 -10 -9
 5314 ./dutchtrainsw.png 530 6712 01 22 8 -3 -11
 5315 ./dutchtrainsw.png 546 6712 01 15 20 -10 -8
 5316 ./dutchtrainsw.png 578 6712 01 13 28 -16 -8
 5317 ./dutchtrainsw.png 626 6712 01 15 20 -12 -10
 5318 * 9	 02 00 04 01 01 00 00 00 00
 5319 * 6	 01 00 01 FF 08 00
 5320 ./dutchtrainsw.png 690 6712 01 22 8 -3 -12
 5321 ./dutchtrainsw.png 706 6712 01 15 20 -8 -9
 5322 ./dutchtrainsw.png 738 6712 01 13 28 -12 -8
 5323 ./dutchtrainsw.png 2 6744 01 15 20 -10 -9
 5324 ./dutchtrainsw.png 34 6744 01 22 8 -3 -11
 5325 ./dutchtrainsw.png 50 6744 01 15 20 -10 -8
 5326 ./dutchtrainsw.png 82 6744 01 13 28 -16 -8
 5327 ./dutchtrainsw.png 130 6744 01 15 20 -12 -10
 5328 * 9	 02 00 05 01 01 00 00 00 00
 5329 * 6	 01 00 01 FF 08 00
 5330 ./dutchtrainsw.png 194 6744 01 22 8 -3 -12
 5331 ./dutchtrainsw.png 210 6744 01 15 20 -8 -9
 5332 ./dutchtrainsw.png 242 6744 01 13 28 -12 -8
 5333 ./dutchtrainsw.png 290 6744 01 15 20 -10 -9
 5334 ./dutchtrainsw.png 322 6744 01 22 8 -3 -11
 5335 ./dutchtrainsw.png 338 6744 01 15 20 -10 -8
 5336 ./dutchtrainsw.png 370 6744 01 13 28 -16 -8
 5337 ./dutchtrainsw.png 418 6744 01 15 20 -12 -10
 5338 * 9	 02 00 06 01 01 00 00 00 00
 5339 * 6	 01 00 01 FF 08 00
 5340 ./dutchtrainsw.png 482 6744 01 22 8 -3 -12
 5341 ./dutchtrainsw.png 498 6744 01 15 20 -8 -9
 5342 ./dutchtrainsw.png 530 6744 01 13 28 -12 -8
 5343 ./dutchtrainsw.png 578 6744 01 15 20 -10 -9
 5344 ./dutchtrainsw.png 610 6744 01 22 8 -3 -11
 5345 ./dutchtrainsw.png 626 6744 01 15 20 -10 -8
 5346 ./dutchtrainsw.png 658 6744 01 13 28 -16 -8
 5347 ./dutchtrainsw.png 706 6744 01 15 20 -12 -10
 5348 * 9	 02 00 07 01 01 00 00 00 00
 5349 * 6	 01 00 01 FF 08 00
 5350 ./dutchtrainsw.png 770 6744 01 22 8 -3 -12
 5351 ./dutchtrainsw.png 2 6776 01 15 20 -8 -9
 5352 ./dutchtrainsw.png 34 6776 01 13 28 -12 -8
 5353 ./dutchtrainsw.png 82 6776 01 15 20 -10 -9
 5354 ./dutchtrainsw.png 114 6776 01 22 8 -3 -11
 5355 ./dutchtrainsw.png 130 6776 01 15 20 -10 -8
 5356 ./dutchtrainsw.png 162 6776 01 13 28 -16 -8
 5357 ./dutchtrainsw.png 210 6776 01 15 20 -12 -10
 5358 * 9	 02 00 08 01 01 00 00 00 00
 5359 * 6	 01 00 01 FF 01 00
 5360 ./dutchtrainsw.png 274 6776 01 13 50 -25 -7
 5361 * 9	 02 00 09 01 01 00 00 00 00
 5362 * 6	 01 00 01 FF 01 00
 5363 ./dutchtrainsw.png 370 6776 01 13 50 -25 -7
 5364 * 9	 02 00 10 01 01 00 00 00 00
 5365 * 15	 02 00 11 80 00 00 04 01 00 02 00 03 00 04 00
 5366 * 15	 02 00 12 80 00 00 04 05 00 06 00 07 00 08 00
 5367 * 14	 02 00 13 81 01 00 FF 01 11 00 00 50 12 00
 5368 * 14	 02 00 14 81 01 00 FF 01 09 00 00 50 10 00
 5369 * 7	 00 00 01 01 61 12 FD
 5370 * 10	 03 00 01 61 01 FF 14 00 13 00
 5371 * 23	 04 00 1F 01 "cContainer Carrier" 00
 5372 * 53	 00 00 13 01 63 00 10 72 03 19 06 0F 05 00 09 C9 00 0B 00 00 0D 00 0E 00 00 00 00 14 28 15 05 16
	 0C 24 00 17 B6 1B 00 00 1C 00 1D 08 88 01 08 21 00 23 00 27 02
 5373 * 6	 01 00 01 FF 08 00
 5374 ./dutchtrainsw.png 594 6776 01 22 8 -3 -11
 5375 ./dutchtrainsw.png 610 6776 01 15 22 -12 -8
 5376 ./dutchtrainsw.png 642 6776 01 12 33 -16 -7
 5377 ./dutchtrainsw.png 690 6776 01 15 22 -13 -10
 5378 ./dutchtrainsw.png 722 6776 01 22 8 -3 -11
 5379 ./dutchtrainsw.png 738 6776 01 15 22 -10 -9
 5380 ./dutchtrainsw.png 2 6808 01 12 33 -17 -7
 5381 ./dutchtrainsw.png 50 6808 01 15 22 -11 -9
 5382 * 9	 02 00 89 01 01 00 00 00 00
 5383 * 6	 01 00 01 FF 08 00
 5384 ./dutchtrainsw.png 114 6808 01 22 8 -3 -11
 5385 ./dutchtrainsw.png 130 6808 01 15 22 -12 -8
 5386 ./dutchtrainsw.png 162 6808 01 12 33 -16 -7
 5387 ./dutchtrainsw.png 210 6808 01 15 22 -13 -10
 5388 ./dutchtrainsw.png 242 6808 01 22 8 -3 -11
 5389 ./dutchtrainsw.png 258 6808 01 15 22 -10 -9
 5390 ./dutchtrainsw.png 290 6808 01 12 33 -17 -7
 5391 ./dutchtrainsw.png 338 6808 01 15 22 -11 -9
 5392 * 9	 02 00 90 01 01 00 00 00 00
 5393 * 6	 01 00 01 FF 08 00
 5394 ./dutchtrainsw.png 402 6808 01 22 8 -3 -11
 5395 ./dutchtrainsw.png 418 6808 01 15 22 -12 -8
 5396 ./dutchtrainsw.png 450 6808 01 12 33 -16 -7
 5397 ./dutchtrainsw.png 498 6808 01 15 22 -13 -10
 5398 ./dutchtrainsw.png 530 6808 01 22 8 -3 -11
 5399 ./dutchtrainsw.png 546 6808 01 15 22 -10 -9
 5400 ./dutchtrainsw.png 578 6808 01 12 33 -17 -7
 5401 ./dutchtrainsw.png 626 6808 01 15 22 -11 -9
 5402 * 9	 02 00 91 01 01 00 00 00 00
 5403 * 6	 01 00 01 FF 08 00
 5404 ./dutchtrainsw.png 690 6808 01 22 8 -3 -11
 5405 ./dutchtrainsw.png 706 6808 01 15 22 -12 -8
 5406 ./dutchtrainsw.png 738 6808 01 12 33 -16 -7
 5407 ./dutchtrainsw.png 2 6840 01 15 22 -13 -10
 5408 ./dutchtrainsw.png 34 6840 01 22 8 -3 -11
 5409 ./dutchtrainsw.png 50 6840 01 15 22 -10 -9
 5410 ./dutchtrainsw.png 82 6840 01 12 33 -17 -7
 5411 ./dutchtrainsw.png 130 6840 01 15 22 -11 -9
 5412 * 9	 02 00 92 01 01 00 00 00 00
 5413 * 15	 02 00 93 80 00 00 04 89 00 90 00 91 00 92 00
 5414 * 6	 01 00 01 FF 01 00
 5415 ./dutchtrainsw.png 210 6840 01 12 50 -25 -6
 5416 * 9	 02 00 02 01 01 00 00 00 00
 5417 * 7	 00 00 01 01 63 12 FD
 5418 * 10	 03 00 01 63 01 FF 02 00 93 00
 5419 * 29	 04 00 1F 01 "dSpherecar \"Bollenwagen\"" 00
 5420 * 51	 00 00 12 01 64 00 84 1C 03 19 06 0F 05 00 09 50 00 0B 00 00 0D 00 0E 00 00 00 00 14 16 15 05 16
	 08 24 00 17 63 1B 00 00 1C 01 1D 20 00 00 00 21 02 23 00
 5421 * 6	 01 00 01 FF 08 00
 5422 ./dutchtrainsw.png 370 6840 01 14 8 -3 -9
 5423 ./dutchtrainsw.png 386 6840 01 14 18 -7 -9
 5424 ./dutchtrainsw.png 418 6840 01 13 25 -8 -7
 5425 ./dutchtrainsw.png 450 6840 01 14 18 -9 -9
 5426 ./dutchtrainsw.png 482 6840 01 14 8 -3 -7
 5427 ./dutchtrainsw.png 498 6840 01 14 18 -9 -8
 5428 ./dutchtrainsw.png 530 6840 01 13 25 -16 -7
 5429 ./dutchtrainsw.png 562 6840 01 14 18 -11 -10
 5430 * 9	 02 00 01 01 01 00 00 00 00
 5431 * 6	 01 00 01 FF 08 00
 5432 ./dutchtrainsw.png 626 6840 01 14 8 -3 -9
 5433 ./dutchtrainsw.png 642 6840 01 14 18 -7 -9
 5434 ./dutchtrainsw.png 674 6840 01 13 25 -8 -7
 5435 ./dutchtrainsw.png 706 6840 01 14 18 -9 -9
 5436 ./dutchtrainsw.png 738 6840 01 14 8 -3 -7
 5437 ./dutchtrainsw.png 754 6840 01 14 18 -9 -8
 5438 ./dutchtrainsw.png 2 6872 01 13 25 -16 -7
 5439 ./dutchtrainsw.png 34 6872 01 14 18 -11 -10
 5440 * 9	 02 00 02 01 01 00 00 00 00
 5441 * 6	 01 00 01 FF 01 00
 5442 ./dutchtrainsw.png 98 6872 01 13 50 -25 -7
 5443 * 9	 02 00 03 01 01 00 00 00 00
 5444 * 6	 01 00 01 FF 01 00
 5445 ./dutchtrainsw.png 194 6872 01 13 50 -25 -7
 5446 * 9	 02 00 04 01 01 00 00 00 00
 5447 * 11	 02 00 05 80 00 00 02 01 00 02 00
 5448 * 7	 00 00 01 01 64 12 FD
 5449 * 10	 03 00 01 64 01 FF 03 00 05 00
 5450 * 17	 04 00 1F 01 "eCompost Car" 00
 5451 * 51	 00 00 12 01 65 00 6B 4E 03 19 06 0F 05 00 09 87 00 0B 00 00 0D 00 0E 00 00 00 00 14 1E 15 05 16
	 08 24 00 17 63 1B 00 00 1C 00 1D 20 00 00 00 21 00 23 00
 5452 * 6	 01 00 01 FF 08 00
 5453 ./dutchtrainsw.png 370 6872 01 24 8 -3 -12
 5454 ./dutchtrainsw.png 386 6872 01 15 22 -11 -8
 5455 ./dutchtrainsw.png 418 6872 01 11 33 -16 -6
 5456 ./dutchtrainsw.png 466 6872 01 15 22 -11 -9
 5457 ./dutchtrainsw.png 498 6872 01 24 8 -3 -12
 5458 ./dutchtrainsw.png 514 6872 01 15 22 -11 -8
 5459 ./dutchtrainsw.png 546 6872 01 11 33 -16 -6
 5460 ./dutchtrainsw.png 594 6872 01 15 22 -11 -9
 5461 * 9	 02 00 01 01 01 00 00 00 00
 5462 * 6	 01 00 01 FF 08 00
 5463 ./dutchtrainsw.png 658 6872 01 24 8 -3 -12
 5464 ./dutchtrainsw.png 674 6872 01 15 22 -11 -8
 5465 ./dutchtrainsw.png 706 6872 01 11 33 -16 -6
 5466 ./dutchtrainsw.png 754 6872 01 15 22 -11 -9
 5467 ./dutchtrainsw.png 786 6872 01 24 8 -3 -12
 5468 ./dutchtrainsw.png 2 6920 01 15 22 -11 -8
 5469 ./dutchtrainsw.png 34 6920 01 11 33 -16 -6
 5470 ./dutchtrainsw.png 82 6920 01 15 22 -11 -9
 5471 * 9	 02 00 02 01 01 00 00 00 00
 5472 * 6	 01 00 01 FF 01 00
 5473 ./dutchtrainsw.png 146 6920 01 11 50 -25 -5
 5474 * 9	 02 00 03 01 01 00 00 00 00
 5475 * 11	 02 00 04 80 00 00 02 01 00 02 00
 5476 * 7	 00 00 01 01 65 12 FD
 5477 * 10	 03 00 01 65 01 FF 03 00 04 00
